/*---------------------------------------------------------------------------*\
  =========                 |
  \\      /  F ield         | OpenFOAM: The Open Source CFD Toolbox
   \\    /   O peration     | Website:  https://openfoam.org
    \\  /    A nd           | Version:  7
     \\/     M anipulation  |
\*---------------------------------------------------------------------------*/
Build  : 7-63349425784a
Exec   : particleInEB
Date   : Sep 13 2023
Time   : 16:00:48
Host   : "93a5b3ccec33"
PID    : 165
I/O    : uncollated
Case   : /opt/plasmasolve
nProcs : 1
sigFpe : Enabling floating point exception trapping (FOAM_SIGFPE).
fileModificationChecking : Monitoring run-time modified files using timeStampMaster (fileModificationSkew 10)
allowSystemOperations : Allowing user-supplied system call operations

// * * * * * * * * * * * * * * * * * * * * * * * * * * * * * * * * * * * * * //
Create time

Create mesh for time = 0.000e+00


Reading g
Reading field U

Reading/calculating face flux field phi

--> FOAM Warning : 
    From function bool Foam::IOobject::typeHeaderOk(bool) [with Type = Foam::GeometricField<double, Foam::fvsPatchField, Foam::surfaceMesh>]
    in file /opt/OpenFOAM/OpenFOAM-7/src/OpenFOAM/lnInclude/IOobjectTemplates.C at line 57
    unexpected class name volScalarField expected surfaceScalarField when reading "/opt/plasmasolve/0.000e+00/phi"
Selecting incompressible transport model Newtonian
Selecting turbulence model type laminar
Selecting laminar stress model Stokes
Reading field E

Reading field B

Reading field pvField

Constructing kinematicCloud kinematicCloud
Constructing particle forces
    none
Constructing cloud functions
    Selecting cloud function timeSpent of type timeSpent
Constructing particle injection models
Creating injector: model1
Selecting injection model generalizedFWPInjection
    Constructing 3-D injection
    Choosing nParticle to be a fixed value, massTotal variable now does not determine anything.


Velocity model patchNormal

{
    magU0           300;
}


Selecting distribution model fixedValue
Selecting dispersion model none
Selecting patch interaction model localInteraction
    Interaction fields will be written to kinematicCloud:massEscape and kinematicCloud:massStick
Selecting stochastic collision model none
Selecting surface film model none
Selecting U integration scheme Euler
Particle charge: 1.60217663e-19
collisions: 

{
    Ar+-_Ar_elastic
    {
        deltaE          0;
        dumpField       yes;
        gasDens         1.4485941e+21;
        gasMass         6.63352599e-26;
        gasTemp         500;
        location        "mc";
    }
    InterpolCollWithMBGas ( Ar+-_Ar_elastic );
}

Reading non-inertial frame fields
Courant Number mean: 0 max: 0

Starting time loop

--> FOAM Warning : 
    From function void Foam::timeControl::read(const Foam::dictionary&)
    in file db/functionObjects/timeControl/timeControl.C at line 89
    Reading "/opt/plasmasolve/system/controlDict.functions.processorField1" from line 23 to line 29
    Using deprecated 'outputControl'
    Please use 'writeControl' with 'writeInterval'
Time = 1.000e-07

Evolving kinematicCloud

Solving 3-D cloud kinematicCloud

Cloud: kinematicCloud injector: model1
    Added 500000 new parcels

Cloud: kinematicCloud
    Current number of parcels       = 500000
    Current mass in system          = 3.31916729e-20
    Linear momentum                 = (1.31194295e-21 5.68025011e-21 -9.63186281e-18)
   |Linear momentum|                = 9.63186458e-18
    Linear kinetic energy           = 1.61448549e-15
    model1:
        number of parcels added     = 500000
        mass introduced             = 3.31916729e-20
    Parcel fate (number, mass)      : patch .*
      - escape                      = 0, 0
      - stick                       = 0, 0

ExecutionTime = 641.05 s  ClockTime = 642 s

Time = 2.000e-07

Evolving kinematicCloud

Solving 3-D cloud kinematicCloud
Cloud: kinematicCloud
    Current number of parcels       = 499847
    Current mass in system          = 3.31815163e-20
    Linear momentum                 = (5.21616996e-22 2.48209936e-21 -9.31938771e-18)
   |Linear momentum|                = 9.31938806e-18
    Linear kinetic energy           = 1.73101634e-15
    model1:
        number of parcels added     = 500000
        mass introduced             = 3.31916729e-20
    Parcel fate (number, mass)      : patch .*
      - escape                      = 153, 1.01566519e-23
      - stick                       = 0, 0

ExecutionTime = 642.2 s  ClockTime = 643 s

Time = 3.000e-07

Evolving kinematicCloud

Solving 3-D cloud kinematicCloud
Cloud: kinematicCloud
    Current number of parcels       = 498813
    Current mass in system          = 3.31128759e-20
    Linear momentum                 = (-2.53978373e-21 4.27911676e-21 -9.02987894e-18)
   |Linear momentum|                = 9.02988031e-18
    Linear kinetic energy           = 1.83166859e-15
    model1:
        number of parcels added     = 500000
        mass introduced             = 3.31916729e-20
    Parcel fate (number, mass)      : patch .*
      - escape                      = 1187, 7.87970315e-23
      - stick                       = 0, 0

ExecutionTime = 643.3 s  ClockTime = 644 s

Time = 4.000e-07

Evolving kinematicCloud

Solving 3-D cloud kinematicCloud
Cloud: kinematicCloud
    Current number of parcels       = 497200
    Current mass in system          = 3.30057995e-20
    Linear momentum                 = (1.3883565e-21 7.71079581e-21 -8.75499278e-18)
   |Linear momentum|                = 8.75499629e-18
    Linear kinetic energy           = 1.92456112e-15
    model1:
        number of parcels added     = 500000
        mass introduced             = 3.31916729e-20
    Parcel fate (number, mass)      : patch .*
      - escape                      = 2800, 1.85873368e-22
      - stick                       = 0, 0

ExecutionTime = 644.39 s  ClockTime = 645 s

Time = 5.000e-07

Evolving kinematicCloud

Solving 3-D cloud kinematicCloud
Cloud: kinematicCloud
    Current number of parcels       = 495191
    Current mass in system          = 3.28724354e-20
    Linear momentum                 = (-2.43252934e-21 5.35636817e-21 -8.48197603e-18)
   |Linear momentum|                = 8.48197807e-18
    Linear kinetic energy           = 2.0131775e-15
    model1:
        number of parcels added     = 500000
        mass introduced             = 3.31916729e-20
    Parcel fate (number, mass)      : patch .*
      - escape                      = 4809, 3.1923751e-22
      - stick                       = 0, 0

ExecutionTime = 645.5 s  ClockTime = 646 s

Time = 6.000e-07

Evolving kinematicCloud

Solving 3-D cloud kinematicCloud
Cloud: kinematicCloud
    Current number of parcels       = 492977
    Current mass in system          = 3.27254627e-20
    Linear momentum                 = (-2.30044361e-21 1.27576372e-20 -8.21747986e-18)
   |Linear momentum|                = 8.21749008e-18
    Linear kinetic energy           = 2.09630948e-15
    model1:
        number of parcels added     = 500000
        mass introduced             = 3.31916729e-20
    Parcel fate (number, mass)      : patch .*
      - escape                      = 7023, 4.66210238e-22
      - stick                       = 0, 0

ExecutionTime = 646.61 s  ClockTime = 647 s

Time = 7.000e-07

Evolving kinematicCloud

Solving 3-D cloud kinematicCloud
Cloud: kinematicCloud
    Current number of parcels       = 490554
    Current mass in system          = 3.25646158e-20
    Linear momentum                 = (-1.13780264e-20 1.33190401e-20 -7.96372186e-18)
   |Linear momentum|                = 7.96374113e-18
    Linear kinetic energy           = 2.17110932e-15
    model1:
        number of parcels added     = 500000
        mass introduced             = 3.31916729e-20
    Parcel fate (number, mass)      : patch .*
      - escape                      = 9446, 6.27057085e-22
      - stick                       = 0, 0

ExecutionTime = 647.72 s  ClockTime = 648 s

Time = 8.000e-07

Evolving kinematicCloud

Solving 3-D cloud kinematicCloud
Cloud: kinematicCloud
    Current number of parcels       = 488025
    Current mass in system          = 3.23967323e-20
    Linear momentum                 = (-1.24381414e-20 1.07078477e-20 -7.71480876e-18)
   |Linear momentum|                = 7.71482622e-18
    Linear kinetic energy           = 2.24431642e-15
    model1:
        number of parcels added     = 500000
        mass introduced             = 3.31916729e-20
    Parcel fate (number, mass)      : patch .*
      - escape                      = 11975, 7.94940566e-22
      - stick                       = 0, 0

ExecutionTime = 648.85 s  ClockTime = 649 s

Time = 9.000e-07

Evolving kinematicCloud

Solving 3-D cloud kinematicCloud
Cloud: kinematicCloud
    Current number of parcels       = 485442
    Current mass in system          = 3.22252642e-20
    Linear momentum                 = (-1.01259426e-20 6.80670152e-21 -7.47306383e-18)
   |Linear momentum|                = 7.47307379e-18
    Linear kinetic energy           = 2.31305178e-15
    model1:
        number of parcels added     = 500000
        mass introduced             = 3.31916729e-20
    Parcel fate (number, mass)      : patch .*
      - escape                      = 14558, 9.66408749e-22
      - stick                       = 0, 0

ExecutionTime = 649.97 s  ClockTime = 650 s

Time = 1.000e-06

Evolving kinematicCloud

Solving 3-D cloud kinematicCloud
Cloud: kinematicCloud
    Current number of parcels       = 482858
    Current mass in system          = 3.20537296e-20
    Linear momentum                 = (-3.97035951e-21 2.07043016e-21 -7.22784781e-18)
   |Linear momentum|                = 7.22784919e-18
    Linear kinetic energy           = 2.37511744e-15
    model1:
        number of parcels added     = 500000
        mass introduced             = 3.31916729e-20
    Parcel fate (number, mass)      : patch .*
      - escape                      = 17142, 1.13794331e-21
      - stick                       = 0, 0

ExecutionTime = 655.01 s  ClockTime = 656 s

Time = 1.100e-06

Evolving kinematicCloud

Solving 3-D cloud kinematicCloud
Cloud: kinematicCloud
    Current number of parcels       = 480093
    Current mass in system          = 3.18701796e-20
    Linear momentum                 = (-5.76519368e-21 1.23939107e-21 -7.00096205e-18)
   |Linear momentum|                = 7.00096453e-18
    Linear kinetic energy           = 2.43227348e-15
    model1:
        number of parcels added     = 500000
        mass introduced             = 3.31916729e-20
    Parcel fate (number, mass)      : patch .*
      - escape                      = 19907, 1.32149326e-21
      - stick                       = 0, 0

ExecutionTime = 656.13 s  ClockTime = 657 s

Time = 1.200e-06

Evolving kinematicCloud

Solving 3-D cloud kinematicCloud
Cloud: kinematicCloud
    Current number of parcels       = 477206
    Current mass in system          = 3.16785309e-20
    Linear momentum                 = (-1.03379092e-20 -8.19154099e-22 -6.77932443e-18)
   |Linear momentum|                = 6.77933236e-18
    Linear kinetic energy           = 2.48586642e-15
    model1:
        number of parcels added     = 500000
        mass introduced             = 3.31916729e-20
    Parcel fate (number, mass)      : patch .*
      - escape                      = 22794, 1.51314198e-21
      - stick                       = 0, 0

ExecutionTime = 657.27 s  ClockTime = 658 s

Time = 1.300e-06

Evolving kinematicCloud

Solving 3-D cloud kinematicCloud
Cloud: kinematicCloud
    Current number of parcels       = 474504
    Current mass in system          = 3.14991631e-20
    Linear momentum                 = (-5.1315199e-21 2.32986697e-21 -6.5596483e-18)
   |Linear momentum|                = 6.55965072e-18
    Linear kinetic energy           = 2.53902495e-15
    model1:
        number of parcels added     = 500000
        mass introduced             = 3.31916729e-20
    Parcel fate (number, mass)      : patch .*
      - escape                      = 25496, 1.69250978e-21
      - stick                       = 0, 0

ExecutionTime = 658.41 s  ClockTime = 659 s

Time = 1.400e-06

Evolving kinematicCloud

Solving 3-D cloud kinematicCloud
Cloud: kinematicCloud
    Current number of parcels       = 471649
    Current mass in system          = 3.13096387e-20
    Linear momentum                 = (-7.59338623e-21 4.73348596e-21 -6.34934154e-18)
   |Linear momentum|                = 6.34934784e-18
    Linear kinetic energy           = 2.58644264e-15
    model1:
        number of parcels added     = 500000
        mass introduced             = 3.31916729e-20
    Parcel fate (number, mass)      : patch .*
      - escape                      = 28351, 1.88203423e-21
      - stick                       = 0, 0

ExecutionTime = 659.56 s  ClockTime = 660 s

Time = 1.500e-06

Evolving kinematicCloud

Solving 3-D cloud kinematicCloud
Cloud: kinematicCloud
    Current number of parcels       = 468766
    Current mass in system          = 3.11182555e-20
    Linear momentum                 = (-1.72163878e-21 9.27236237e-21 -6.13816497e-18)
   |Linear momentum|                = 6.13817222e-18
    Linear kinetic energy           = 2.63186064e-15
    model1:
        number of parcels added     = 500000
        mass introduced             = 3.31916729e-20
    Parcel fate (number, mass)      : patch .*
      - escape                      = 31234, 2.07341742e-21
      - stick                       = 0, 0

ExecutionTime = 660.72 s  ClockTime = 661 s

Time = 1.600e-06

Evolving kinematicCloud

Solving 3-D cloud kinematicCloud
Cloud: kinematicCloud
    Current number of parcels       = 465891
    Current mass in system          = 3.09274034e-20
    Linear momentum                 = (1.38651324e-21 1.05681439e-20 -5.94118696e-18)
   |Linear momentum|                = 5.94119652e-18
    Linear kinetic energy           = 2.67663633e-15
    model1:
        number of parcels added     = 500000
        mass introduced             = 3.31916729e-20
    Parcel fate (number, mass)      : patch .*
      - escape                      = 34109, 2.26426954e-21
      - stick                       = 0, 0

ExecutionTime = 661.89 s  ClockTime = 662 s

Time = 1.700e-06

Evolving kinematicCloud

Solving 3-D cloud kinematicCloud
Cloud: kinematicCloud
    Current number of parcels       = 462938
    Current mass in system          = 3.07313734e-20
    Linear momentum                 = (9.61593879e-21 1.28842418e-20 -5.75201975e-18)
   |Linear momentum|                = 5.75204221e-18
    Linear kinetic energy           = 2.71342239e-15
    model1:
        number of parcels added     = 500000
        mass introduced             = 3.31916729e-20
    Parcel fate (number, mass)      : patch .*
      - escape                      = 37062, 2.46029956e-21
      - stick                       = 0, 0

ExecutionTime = 663.05 s  ClockTime = 664 s

Time = 1.800e-06

Evolving kinematicCloud

Solving 3-D cloud kinematicCloud
Cloud: kinematicCloud
    Current number of parcels       = 459969
    Current mass in system          = 3.05342812e-20
    Linear momentum                 = (8.96099405e-21 9.33496079e-21 -5.57035655e-18)
   |Linear momentum|                = 5.57037158e-18
    Linear kinetic energy           = 2.74855906e-15
    model1:
        number of parcels added     = 500000
        mass introduced             = 3.31916729e-20
    Parcel fate (number, mass)      : patch .*
      - escape                      = 40031, 2.65739171e-21
      - stick                       = 0, 0

ExecutionTime = 664.23 s  ClockTime = 665 s

Time = 1.900e-06

Evolving kinematicCloud

Solving 3-D cloud kinematicCloud
Cloud: kinematicCloud
    Current number of parcels       = 457048
    Current mass in system          = 3.03403754e-20
    Linear momentum                 = (2.717419e-21 9.37698057e-21 -5.39222309e-18)
   |Linear momentum|                = 5.39223193e-18
    Linear kinetic energy           = 2.78376404e-15
    model1:
        number of parcels added     = 500000
        mass introduced             = 3.31916729e-20
    Parcel fate (number, mass)      : patch .*
      - escape                      = 42952, 2.85129747e-21
      - stick                       = 0, 0

ExecutionTime = 665.4 s  ClockTime = 666 s

Time = 2.000e-06

Evolving kinematicCloud

Solving 3-D cloud kinematicCloud
Cloud: kinematicCloud
    Current number of parcels       = 454110
    Current mass in system          = 3.01453412e-20
    Linear momentum                 = (5.10987343e-21 4.35342396e-21 -5.21579231e-18)
   |Linear momentum|                = 5.21579663e-18
    Linear kinetic energy           = 2.81315326e-15
    model1:
        number of parcels added     = 500000
        mass introduced             = 3.31916729e-20
    Parcel fate (number, mass)      : patch .*
      - escape                      = 45890, 3.04633174e-21
      - stick                       = 0, 0

ExecutionTime = 670.24 s  ClockTime = 671 s

Time = 2.100e-06

Evolving kinematicCloud

Solving 3-D cloud kinematicCloud
Cloud: kinematicCloud
    Current number of parcels       = 451091
    Current mass in system          = 2.99449299e-20
    Linear momentum                 = (1.3983642e-22 7.49548135e-21 -5.04269052e-18)
   |Linear momentum|                = 5.0426961e-18
    Linear kinetic energy           = 2.83958823e-15
    model1:
        number of parcels added     = 500000
        mass introduced             = 3.31916729e-20
    Parcel fate (number, mass)      : patch .*
      - escape                      = 48909, 3.24674306e-21
      - stick                       = 0, 0

ExecutionTime = 671.41 s  ClockTime = 672 s

Time = 2.200e-06

Evolving kinematicCloud

Solving 3-D cloud kinematicCloud
Cloud: kinematicCloud
    Current number of parcels       = 448078
    Current mass in system          = 2.97449168e-20
    Linear momentum                 = (2.02948942e-21 4.38427407e-21 -4.88003737e-18)
   |Linear momentum|                = 4.88003976e-18
    Linear kinetic energy           = 2.86446169e-15
    model1:
        number of parcels added     = 500000
        mass introduced             = 3.31916729e-20
    Parcel fate (number, mass)      : patch .*
      - escape                      = 51922, 3.44675608e-21
      - stick                       = 0, 0

ExecutionTime = 672.61 s  ClockTime = 673 s

Time = 2.300e-06

Evolving kinematicCloud

Solving 3-D cloud kinematicCloud
Cloud: kinematicCloud
    Current number of parcels       = 445104
    Current mass in system          = 2.95474928e-20
    Linear momentum                 = (6.51720809e-21 -2.46998428e-21 -4.72215086e-18)
   |Linear momentum|                = 4.722156e-18
    Linear kinetic energy           = 2.88766012e-15
    model1:
        number of parcels added     = 500000
        mass introduced             = 3.31916729e-20
    Parcel fate (number, mass)      : patch .*
      - escape                      = 54896, 3.64418015e-21
      - stick                       = 0, 0

ExecutionTime = 673.79 s  ClockTime = 674 s

Time = 2.400e-06

Evolving kinematicCloud

Solving 3-D cloud kinematicCloud
Cloud: kinematicCloud
    Current number of parcels       = 442153
    Current mass in system          = 2.93515955e-20
    Linear momentum                 = (6.31117102e-21 4.59544445e-21 -4.57316597e-18)
   |Linear momentum|                = 4.57317264e-18
    Linear kinetic energy           = 2.9101311e-15
    model1:
        number of parcels added     = 500000
        mass introduced             = 3.31916729e-20
    Parcel fate (number, mass)      : patch .*
      - escape                      = 57847, 3.84007741e-21
      - stick                       = 0, 0

ExecutionTime = 674.96 s  ClockTime = 675 s

Time = 2.500e-06

Evolving kinematicCloud

Solving 3-D cloud kinematicCloud
Cloud: kinematicCloud
    Current number of parcels       = 439209
    Current mass in system          = 2.91561629e-20
    Linear momentum                 = (8.81712953e-21 3.75780309e-21 -4.42841059e-18)
   |Linear momentum|                = 4.42842097e-18
    Linear kinetic energy           = 2.92799045e-15
    model1:
        number of parcels added     = 500000
        mass introduced             = 3.31916729e-20
    Parcel fate (number, mass)      : patch .*
      - escape                      = 60791, 4.03550998e-21
      - stick                       = 0, 0

ExecutionTime = 676.13 s  ClockTime = 677 s

Time = 2.600e-06

Evolving kinematicCloud

Solving 3-D cloud kinematicCloud
Cloud: kinematicCloud
    Current number of parcels       = 436229
    Current mass in system          = 2.89583406e-20
    Linear momentum                 = (7.0239553e-21 -3.1706766e-21 -4.28444019e-18)
   |Linear momentum|                = 4.28444712e-18
    Linear kinetic energy           = 2.9457777e-15
    model1:
        number of parcels added     = 500000
        mass introduced             = 3.31916729e-20
    Parcel fate (number, mass)      : patch .*
      - escape                      = 63771, 4.23333235e-21
      - stick                       = 0, 0

ExecutionTime = 677.3 s  ClockTime = 678 s

Time = 2.700e-06

Evolving kinematicCloud

Solving 3-D cloud kinematicCloud
Cloud: kinematicCloud
    Current number of parcels       = 433272
    Current mass in system          = 2.8762045e-20
    Linear momentum                 = (5.3037524e-21 -1.13217088e-20 -4.14822913e-18)
   |Linear momentum|                = 4.14824797e-18
    Linear kinetic energy           = 2.95873329e-15
    model1:
        number of parcels added     = 500000
        mass introduced             = 3.31916729e-20
    Parcel fate (number, mass)      : patch .*
      - escape                      = 66728, 4.4296279e-21
      - stick                       = 0, 0

ExecutionTime = 678.48 s  ClockTime = 679 s

Time = 2.800e-06

Evolving kinematicCloud

Solving 3-D cloud kinematicCloud
Cloud: kinematicCloud
    Current number of parcels       = 430328
    Current mass in system          = 2.85666124e-20
    Linear momentum                 = (-1.28303631e-22 -1.29862518e-20 -4.02109781e-18)
   |Linear momentum|                = 4.02111878e-18
    Linear kinetic energy           = 2.97021104e-15
    model1:
        number of parcels added     = 500000
        mass introduced             = 3.31916729e-20
    Parcel fate (number, mass)      : patch .*
      - escape                      = 69672, 4.62506047e-21
      - stick                       = 0, 0

ExecutionTime = 679.65 s  ClockTime = 680 s

Time = 2.900e-06

Evolving kinematicCloud

Solving 3-D cloud kinematicCloud
Cloud: kinematicCloud
    Current number of parcels       = 427359
    Current mass in system          = 2.83695203e-20
    Linear momentum                 = (1.00129941e-21 -1.12662966e-20 -3.89345024e-18)
   |Linear momentum|                = 3.89346666e-18
    Linear kinetic energy           = 2.97994615e-15
    model1:
        number of parcels added     = 500000
        mass introduced             = 3.31916729e-20
    Parcel fate (number, mass)      : patch .*
      - escape                      = 72641, 4.82215262e-21
      - stick                       = 0, 0

ExecutionTime = 680.84 s  ClockTime = 681 s

Time = 3.000e-06

Evolving kinematicCloud

Solving 3-D cloud kinematicCloud
Cloud: kinematicCloud
    Current number of parcels       = 424404
    Current mass in system          = 2.81733575e-20
    Linear momentum                 = (1.71381231e-21 -3.23997879e-21 -3.76877042e-18)
   |Linear momentum|                = 3.7687722e-18
    Linear kinetic energy           = 2.98829328e-15
    model1:
        number of parcels added     = 500000
        mass introduced             = 3.31916729e-20
    Parcel fate (number, mass)      : patch .*
      - escape                      = 75596, 5.01831541e-21
      - stick                       = 0, 0

ExecutionTime = 685.59 s  ClockTime = 686 s

Time = 3.100e-06

Evolving kinematicCloud

Solving 3-D cloud kinematicCloud
Cloud: kinematicCloud
    Current number of parcels       = 421437
    Current mass in system          = 2.79763981e-20
    Linear momentum                 = (4.56019361e-21 -3.33377785e-21 -3.65396055e-18)
   |Linear momentum|                = 3.65396492e-18
    Linear kinetic energy           = 2.99409345e-15
    model1:
        number of parcels added     = 500000
        mass introduced             = 3.31916729e-20
    Parcel fate (number, mass)      : patch .*
      - escape                      = 78563, 5.2152748e-21
      - stick                       = 0, 0

ExecutionTime = 686.76 s  ClockTime = 687 s

Time = 3.200e-06

Evolving kinematicCloud

Solving 3-D cloud kinematicCloud
Cloud: kinematicCloud
    Current number of parcels       = 418402
    Current mass in system          = 2.77749247e-20
    Linear momentum                 = (3.79232627e-22 3.0851508e-21 -3.53937419e-18)
   |Linear momentum|                = 3.53937555e-18
    Linear kinetic energy           = 2.99628947e-15
    model1:
        number of parcels added     = 500000
        mass introduced             = 3.31916729e-20
    Parcel fate (number, mass)      : patch .*
      - escape                      = 81598, 5.41674825e-21
      - stick                       = 0, 0

ExecutionTime = 687.93 s  ClockTime = 688 s

Time = 3.300e-06

Evolving kinematicCloud

Solving 3-D cloud kinematicCloud
Cloud: kinematicCloud
    Current number of parcels       = 415563
    Current mass in system          = 2.75864623e-20
    Linear momentum                 = (-3.06377625e-21 2.81153256e-21 -3.42596819e-18)
   |Linear momentum|                = 3.42597071e-18
    Linear kinetic energy           = 3.00302376e-15
    model1:
        number of parcels added     = 500000
        mass introduced             = 3.31916729e-20
    Parcel fate (number, mass)      : patch .*
      - escape                      = 84437, 5.60521057e-21
      - stick                       = 0, 0

ExecutionTime = 689.1 s  ClockTime = 690 s

Time = 3.400e-06

Evolving kinematicCloud

Solving 3-D cloud kinematicCloud
Cloud: kinematicCloud
    Current number of parcels       = 412715
    Current mass in system          = 2.73974026e-20
    Linear momentum                 = (-4.52968103e-21 -1.372877e-21 -3.32566515e-18)
   |Linear momentum|                = 3.32566851e-18
    Linear kinetic energy           = 3.00703071e-15
    model1:
        number of parcels added     = 500000
        mass introduced             = 3.31916729e-20
    Parcel fate (number, mass)      : patch .*
      - escape                      = 87285, 5.79427034e-21
      - stick                       = 0, 0

ExecutionTime = 690.26 s  ClockTime = 691 s

Time = 3.500e-06

Evolving kinematicCloud

Solving 3-D cloud kinematicCloud
Cloud: kinematicCloud
    Current number of parcels       = 409883
    Current mass in system          = 2.72094049e-20
    Linear momentum                 = (-4.30373292e-21 -7.91783291e-21 -3.22417986e-18)
   |Linear momentum|                = 3.22419245e-18
    Linear kinetic energy           = 3.01095455e-15
    model1:
        number of parcels added     = 500000
        mass introduced             = 3.31916729e-20
    Parcel fate (number, mass)      : patch .*
      - escape                      = 90117, 5.98226797e-21
      - stick                       = 0, 0

ExecutionTime = 691.42 s  ClockTime = 692 s

Time = 3.600e-06

Evolving kinematicCloud

Solving 3-D cloud kinematicCloud
Cloud: kinematicCloud
    Current number of parcels       = 407094
    Current mass in system          = 2.70242618e-20
    Linear momentum                 = (-8.22018423e-22 -1.31750645e-20 -3.12526409e-18)
   |Linear momentum|                = 3.12529197e-18
    Linear kinetic energy           = 3.01127712e-15
    model1:
        number of parcels added     = 500000
        mass introduced             = 3.31916729e-20
    Parcel fate (number, mass)      : patch .*
      - escape                      = 92906, 6.16741113e-21
      - stick                       = 0, 0

ExecutionTime = 692.57 s  ClockTime = 693 s

Time = 3.700e-06

Evolving kinematicCloud

Solving 3-D cloud kinematicCloud
Cloud: kinematicCloud
    Current number of parcels       = 404265
    Current mass in system          = 2.68364633e-20
    Linear momentum                 = (-2.52274768e-22 -1.37634758e-20 -3.03432882e-18)
   |Linear momentum|                = 3.03436005e-18
    Linear kinetic energy           = 3.01094612e-15
    model1:
        number of parcels added     = 500000
        mass introduced             = 3.31916729e-20
    Parcel fate (number, mass)      : patch .*
      - escape                      = 95735, 6.35520961e-21
      - stick                       = 0, 0

ExecutionTime = 693.72 s  ClockTime = 694 s

Time = 3.800e-06

Evolving kinematicCloud

Solving 3-D cloud kinematicCloud
Cloud: kinematicCloud
    Current number of parcels       = 401511
    Current mass in system          = 2.66536436e-20
    Linear momentum                 = (1.10747857e-20 -8.40454768e-21 -2.93940409e-18)
   |Linear momentum|                = 2.93943697e-18
    Linear kinetic energy           = 3.01105734e-15
    model1:
        number of parcels added     = 500000
        mass introduced             = 3.31916729e-20
    Parcel fate (number, mass)      : patch .*
      - escape                      = 98489, 6.53802935e-21
      - stick                       = 0, 0

ExecutionTime = 694.87 s  ClockTime = 695 s

Time = 3.900e-06

Evolving kinematicCloud

Solving 3-D cloud kinematicCloud
Cloud: kinematicCloud
    Current number of parcels       = 398694
    Current mass in system          = 2.64666417e-20
    Linear momentum                 = (1.03882758e-20 -1.16462714e-22 -2.85387187e-18)
   |Linear momentum|                = 2.85389078e-18
    Linear kinetic energy           = 3.00950736e-15
    model1:
        number of parcels added     = 500000
        mass introduced             = 3.31916729e-20
    Parcel fate (number, mass)      : patch .*
      - escape                      = 101306, 6.72503123e-21
      - stick                       = 0, 0

ExecutionTime = 696.05 s  ClockTime = 697 s

Time = 4.000e-06

Evolving kinematicCloud

Solving 3-D cloud kinematicCloud
Cloud: kinematicCloud
    Current number of parcels       = 395921
    Current mass in system          = 2.62825607e-20
    Linear momentum                 = (1.22204252e-20 -2.65787967e-21 -2.77006835e-18)
   |Linear momentum|                = 2.77009658e-18
    Linear kinetic energy           = 3.00538296e-15
    model1:
        number of parcels added     = 500000
        mass introduced             = 3.31916729e-20
    Parcel fate (number, mass)      : patch .*
      - escape                      = 104079, 6.90911225e-21
      - stick                       = 0, 0

ExecutionTime = 700.66 s  ClockTime = 701 s

Time = 4.100e-06

Evolving kinematicCloud

Solving 3-D cloud kinematicCloud
Cloud: kinematicCloud
    Current number of parcels       = 393094
    Current mass in system          = 2.60948949e-20
    Linear momentum                 = (1.61483452e-20 -3.69735816e-21 -2.68530221e-18)
   |Linear momentum|                = 2.68535331e-18
    Linear kinetic energy           = 3.00038253e-15
    model1:
        number of parcels added     = 500000
        mass introduced             = 3.31916729e-20
    Parcel fate (number, mass)      : patch .*
      - escape                      = 106906, 7.09677797e-21
      - stick                       = 0, 0

ExecutionTime = 701.79 s  ClockTime = 702 s

Time = 4.200e-06

Evolving kinematicCloud

Solving 3-D cloud kinematicCloud
Cloud: kinematicCloud
    Current number of parcels       = 390509
    Current mass in system          = 2.5923294e-20
    Linear momentum                 = (1.12160153e-20 -2.80179384e-21 -2.60388401e-18)
   |Linear momentum|                = 2.60390967e-18
    Linear kinetic energy           = 2.99615406e-15
    model1:
        number of parcels added     = 500000
        mass introduced             = 3.31916729e-20
    Parcel fate (number, mass)      : patch .*
      - escape                      = 109491, 7.26837892e-21
      - stick                       = 0, 0

ExecutionTime = 702.93 s  ClockTime = 703 s

Time = 4.300e-06

Evolving kinematicCloud

Solving 3-D cloud kinematicCloud
Cloud: kinematicCloud
    Current number of parcels       = 387821
    Current mass in system          = 2.57448556e-20
    Linear momentum                 = (1.20287688e-20 5.86777219e-22 -2.52750743e-18)
   |Linear momentum|                = 2.52753612e-18
    Linear kinetic energy           = 2.98949462e-15
    model1:
        number of parcels added     = 500000
        mass introduced             = 3.31916729e-20
    Parcel fate (number, mass)      : patch .*
      - escape                      = 112179, 7.44681735e-21
      - stick                       = 0, 0

ExecutionTime = 704.07 s  ClockTime = 705 s

Time = 4.400e-06

Evolving kinematicCloud

Solving 3-D cloud kinematicCloud
Cloud: kinematicCloud
    Current number of parcels       = 385240
    Current mass in system          = 2.55735201e-20
    Linear momentum                 = (1.62944345e-20 -6.79654916e-22 -2.45169606e-18)
   |Linear momentum|                = 2.45175031e-18
    Linear kinetic energy           = 2.98527e-15
    model1:
        number of parcels added     = 500000
        mass introduced             = 3.31916729e-20
    Parcel fate (number, mass)      : patch .*
      - escape                      = 114760, 7.61815277e-21
      - stick                       = 0, 0

ExecutionTime = 705.2 s  ClockTime = 706 s

Time = 4.500e-06

Evolving kinematicCloud

Solving 3-D cloud kinematicCloud
Cloud: kinematicCloud
    Current number of parcels       = 382600
    Current mass in system          = 2.53982681e-20
    Linear momentum                 = (1.36373346e-20 3.70452906e-21 -2.38785813e-18)
   |Linear momentum|                = 2.38789994e-18
    Linear kinetic energy           = 2.97616115e-15
    model1:
        number of parcels added     = 500000
        mass introduced             = 3.31916729e-20
    Parcel fate (number, mass)      : patch .*
      - escape                      = 117400, 7.7934048e-21
      - stick                       = 0, 0

ExecutionTime = 706.32 s  ClockTime = 707 s

Time = 4.600e-06

Evolving kinematicCloud

Solving 3-D cloud kinematicCloud
Cloud: kinematicCloud
    Current number of parcels       = 379988
    Current mass in system          = 2.52248748e-20
    Linear momentum                 = (1.2334627e-20 1.71085064e-21 -2.31048897e-18)
   |Linear momentum|                = 2.31052253e-18
    Linear kinetic energy           = 2.96899133e-15
    model1:
        number of parcels added     = 500000
        mass introduced             = 3.31916729e-20
    Parcel fate (number, mass)      : patch .*
      - escape                      = 120012, 7.9667981e-21
      - stick                       = 0, 0

ExecutionTime = 707.45 s  ClockTime = 708 s

Time = 4.700e-06

Evolving kinematicCloud

Solving 3-D cloud kinematicCloud
Cloud: kinematicCloud
    Current number of parcels       = 377391
    Current mass in system          = 2.50524773e-20
    Linear momentum                 = (6.307257e-21 -2.76910038e-22 -2.24680257e-18)
   |Linear momentum|                = 2.24681144e-18
    Linear kinetic energy           = 2.96134512e-15
    model1:
        number of parcels added     = 500000
        mass introduced             = 3.31916729e-20
    Parcel fate (number, mass)      : patch .*
      - escape                      = 122609, 8.13919565e-21
      - stick                       = 0, 0

ExecutionTime = 708.57 s  ClockTime = 709 s

Time = 4.800e-06

Evolving kinematicCloud

Solving 3-D cloud kinematicCloud
Cloud: kinematicCloud
    Current number of parcels       = 374842
    Current mass in system          = 2.48832661e-20
    Linear momentum                 = (8.67103095e-21 -8.37783176e-22 -2.18252613e-18)
   |Linear momentum|                = 2.18254352e-18
    Linear kinetic energy           = 2.95463664e-15
    model1:
        number of parcels added     = 500000
        mass introduced             = 3.31916729e-20
    Parcel fate (number, mass)      : patch .*
      - escape                      = 125158, 8.3084068e-21
      - stick                       = 0, 0

ExecutionTime = 709.69 s  ClockTime = 710 s

Time = 4.900e-06

Evolving kinematicCloud

Solving 3-D cloud kinematicCloud
Cloud: kinematicCloud
    Current number of parcels       = 372289
    Current mass in system          = 2.47137894e-20
    Linear momentum                 = (2.03552075e-21 -1.30368387e-21 -2.13333719e-18)
   |Linear momentum|                = 2.13333856e-18
    Linear kinetic energy           = 2.94931333e-15
    model1:
        number of parcels added     = 500000
        mass introduced             = 3.31916729e-20
    Parcel fate (number, mass)      : patch .*
      - escape                      = 127711, 8.47788348e-21
      - stick                       = 0, 0

ExecutionTime = 710.82 s  ClockTime = 711 s

Time = 5.000e-06

Evolving kinematicCloud

Solving 3-D cloud kinematicCloud
Cloud: kinematicCloud
    Current number of parcels       = 369876
    Current mass in system          = 2.45536064e-20
    Linear momentum                 = (5.5947347e-21 -4.92285282e-21 -2.07383161e-18)
   |Linear momentum|                = 2.073845e-18
    Linear kinetic energy           = 2.94265606e-15
    model1:
        number of parcels added     = 500000
        mass introduced             = 3.31916729e-20
    Parcel fate (number, mass)      : patch .*
      - escape                      = 130124, 8.63806649e-21
      - stick                       = 0, 0

ExecutionTime = 715.34 s  ClockTime = 716 s

Time = 5.100e-06

Evolving kinematicCloud

Solving 3-D cloud kinematicCloud
Cloud: kinematicCloud
    Current number of parcels       = 367403
    Current mass in system          = 2.43894404e-20
    Linear momentum                 = (7.86229343e-21 -4.30134995e-21 -2.0212276e-18)
   |Linear momentum|                = 2.02124747e-18
    Linear kinetic energy           = 2.92912225e-15
    model1:
        number of parcels added     = 500000
        mass introduced             = 3.31916729e-20
    Parcel fate (number, mass)      : patch .*
      - escape                      = 132597, 8.8022325e-21
      - stick                       = 0, 0

ExecutionTime = 716.45 s  ClockTime = 717 s

Time = 5.200e-06

Evolving kinematicCloud

Solving 3-D cloud kinematicCloud
Cloud: kinematicCloud
    Current number of parcels       = 365000
    Current mass in system          = 2.42299212e-20
    Linear momentum                 = (3.82271083e-21 -2.14090104e-21 -1.96172551e-18)
   |Linear momentum|                = 1.96173041e-18
    Linear kinetic energy           = 2.92125433e-15
    model1:
        number of parcels added     = 500000
        mass introduced             = 3.31916729e-20
    Parcel fate (number, mass)      : patch .*
      - escape                      = 135000, 8.96175168e-21
      - stick                       = 0, 0

ExecutionTime = 717.56 s  ClockTime = 718 s

Time = 5.300e-06

Evolving kinematicCloud

Solving 3-D cloud kinematicCloud
Cloud: kinematicCloud
    Current number of parcels       = 362628
    Current mass in system          = 2.40724599e-20
    Linear momentum                 = (3.74874081e-21 -9.08220742e-21 -1.91280164e-18)
   |Linear momentum|                = 1.91282688e-18
    Linear kinetic energy           = 2.91201304e-15
    model1:
        number of parcels added     = 500000
        mass introduced             = 3.31916729e-20
    Parcel fate (number, mass)      : patch .*
      - escape                      = 137372, 9.11921298e-21
      - stick                       = 0, 0

ExecutionTime = 718.66 s  ClockTime = 719 s

Time = 5.400e-06

Evolving kinematicCloud

Solving 3-D cloud kinematicCloud
Cloud: kinematicCloud
    Current number of parcels       = 360310
    Current mass in system          = 2.39185833e-20
    Linear momentum                 = (3.46933906e-21 -5.29229862e-21 -1.86432293e-18)
   |Linear momentum|                = 1.86433367e-18
    Linear kinetic energy           = 2.90248691e-15
    model1:
        number of parcels added     = 500000
        mass introduced             = 3.31916729e-20
    Parcel fate (number, mass)      : patch .*
      - escape                      = 139690, 9.27308958e-21
      - stick                       = 0, 0

ExecutionTime = 719.76 s  ClockTime = 720 s

Time = 5.500e-06

Evolving kinematicCloud

Solving 3-D cloud kinematicCloud
Cloud: kinematicCloud
    Current number of parcels       = 357938
    Current mass in system          = 2.3761122e-20
    Linear momentum                 = (1.45742114e-21 -2.89270874e-21 -1.819852e-18)
   |Linear momentum|                = 1.81985488e-18
    Linear kinetic energy           = 2.88993234e-15
    model1:
        number of parcels added     = 500000
        mass introduced             = 3.31916729e-20
    Parcel fate (number, mass)      : patch .*
      - escape                      = 142062, 9.43055087e-21
      - stick                       = 0, 0

ExecutionTime = 720.88 s  ClockTime = 721 s

Time = 5.600e-06

Evolving kinematicCloud

Solving 3-D cloud kinematicCloud
Cloud: kinematicCloud
    Current number of parcels       = 355642
    Current mass in system          = 2.36087059e-20
    Linear momentum                 = (2.51693327e-21 -2.8406308e-21 -1.76807406e-18)
   |Linear momentum|                = 1.76807813e-18
    Linear kinetic energy           = 2.88026548e-15
    model1:
        number of parcels added     = 500000
        mass introduced             = 3.31916729e-20
    Parcel fate (number, mass)      : patch .*
      - escape                      = 144358, 9.58296703e-21
      - stick                       = 0, 0

ExecutionTime = 721.97 s  ClockTime = 722 s

Time = 5.700e-06

Evolving kinematicCloud

Solving 3-D cloud kinematicCloud
Cloud: kinematicCloud
    Current number of parcels       = 353362
    Current mass in system          = 2.34573518e-20
    Linear momentum                 = (5.21161643e-21 -4.5279147e-21 -1.72969472e-18)
   |Linear momentum|                = 1.7297085e-18
    Linear kinetic energy           = 2.87217764e-15
    model1:
        number of parcels added     = 500000
        mass introduced             = 3.31916729e-20
    Parcel fate (number, mass)      : patch .*
      - escape                      = 146638, 9.73432106e-21
      - stick                       = 0, 0

ExecutionTime = 723.06 s  ClockTime = 724 s

Time = 5.800e-06

Evolving kinematicCloud

Solving 3-D cloud kinematicCloud
Cloud: kinematicCloud
    Current number of parcels       = 351043
    Current mass in system          = 2.33034089e-20
    Linear momentum                 = (3.97315418e-22 -7.65759924e-21 -1.68096612e-18)
   |Linear momentum|                = 1.68098361e-18
    Linear kinetic energy           = 2.8611149e-15
    model1:
        number of parcels added     = 500000
        mass introduced             = 3.31916729e-20
    Parcel fate (number, mass)      : patch .*
      - escape                      = 148957, 9.88826404e-21
      - stick                       = 0, 0

ExecutionTime = 724.14 s  ClockTime = 725 s

Time = 5.900e-06

Evolving kinematicCloud

Solving 3-D cloud kinematicCloud
Cloud: kinematicCloud
    Current number of parcels       = 348758
    Current mass in system          = 2.31517229e-20
    Linear momentum                 = (4.18642657e-23 -8.38744818e-21 -1.63379028e-18)
   |Linear momentum|                = 1.63381181e-18
    Linear kinetic energy           = 2.84957003e-15
    model1:
        number of parcels added     = 500000
        mass introduced             = 3.31916729e-20
    Parcel fate (number, mass)      : patch .*
      - escape                      = 151242, 1.003995e-20
      - stick                       = 0, 0

ExecutionTime = 725.23 s  ClockTime = 726 s

Time = 6.000e-06

Evolving kinematicCloud

Solving 3-D cloud kinematicCloud
Cloud: kinematicCloud
    Current number of parcels       = 346578
    Current mass in system          = 2.30070072e-20
    Linear momentum                 = (-8.00303399e-21 -5.99554593e-21 -1.59544144e-18)
   |Linear momentum|                = 1.59547278e-18
    Linear kinetic energy           = 2.83804406e-15
    model1:
        number of parcels added     = 500000
        mass introduced             = 3.31916729e-20
    Parcel fate (number, mass)      : patch .*
      - escape                      = 153422, 1.01846657e-20
      - stick                       = 0, 0

ExecutionTime = 729.77 s  ClockTime = 730 s

Time = 6.100e-06

Evolving kinematicCloud

Solving 3-D cloud kinematicCloud
Cloud: kinematicCloud
    Current number of parcels       = 344406
    Current mass in system          = 2.28628226e-20
    Linear momentum                 = (-6.59440729e-21 -3.96132834e-21 -1.55238963e-18)
   |Linear momentum|                = 1.55240869e-18
    Linear kinetic energy           = 2.82548907e-15
    model1:
        number of parcels added     = 500000
        mass introduced             = 3.31916729e-20
    Parcel fate (number, mass)      : patch .*
      - escape                      = 155594, 1.03288503e-20
      - stick                       = 0, 0

ExecutionTime = 730.85 s  ClockTime = 731 s

Time = 6.200e-06

Evolving kinematicCloud

Solving 3-D cloud kinematicCloud
Cloud: kinematicCloud
    Current number of parcels       = 342260
    Current mass in system          = 2.27203639e-20
    Linear momentum                 = (-7.62295417e-21 -8.93372682e-21 -1.50967756e-18)
   |Linear momentum|                = 1.50972323e-18
    Linear kinetic energy           = 2.81465041e-15
    model1:
        number of parcels added     = 500000
        mass introduced             = 3.31916729e-20
    Parcel fate (number, mass)      : patch .*
      - escape                      = 157740, 1.0471309e-20
      - stick                       = 0, 0

ExecutionTime = 731.93 s  ClockTime = 732 s

Time = 6.300e-06

Evolving kinematicCloud

Solving 3-D cloud kinematicCloud
Cloud: kinematicCloud
    Current number of parcels       = 340036
    Current mass in system          = 2.25727274e-20
    Linear momentum                 = (-1.60179176e-20 -6.0620362e-21 -1.47581044e-18)
   |Linear momentum|                = 1.47590981e-18
    Linear kinetic energy           = 2.80244873e-15
    model1:
        number of parcels added     = 500000
        mass introduced             = 3.31916729e-20
    Parcel fate (number, mass)      : patch .*
      - escape                      = 159964, 1.06189455e-20
      - stick                       = 0, 0

ExecutionTime = 732.99 s  ClockTime = 734 s

Time = 6.400e-06

Evolving kinematicCloud

Solving 3-D cloud kinematicCloud
Cloud: kinematicCloud
    Current number of parcels       = 337867
    Current mass in system          = 2.24287419e-20
    Linear momentum                 = (-1.68763034e-20 -3.12498601e-21 -1.44088955e-18)
   |Linear momentum|                = 1.44099177e-18
    Linear kinetic energy           = 2.79268885e-15
    model1:
        number of parcels added     = 500000
        mass introduced             = 3.31916729e-20
    Parcel fate (number, mass)      : patch .*
      - escape                      = 162133, 1.0762931e-20
      - stick                       = 0, 0

ExecutionTime = 734.05 s  ClockTime = 735 s

Time = 6.500e-06

Evolving kinematicCloud

Solving 3-D cloud kinematicCloud
Cloud: kinematicCloud
    Current number of parcels       = 335726
    Current mass in system          = 2.22866152e-20
    Linear momentum                 = (-1.26753196e-20 5.10236393e-21 -1.40701074e-18)
   |Linear momentum|                = 1.40707708e-18
    Linear kinetic energy           = 2.77808807e-15
    model1:
        number of parcels added     = 500000
        mass introduced             = 3.31916729e-20
    Parcel fate (number, mass)      : patch .*
      - escape                      = 164274, 1.09050578e-20
      - stick                       = 0, 0

ExecutionTime = 735.11 s  ClockTime = 736 s

Time = 6.600e-06

Evolving kinematicCloud

Solving 3-D cloud kinematicCloud
Cloud: kinematicCloud
    Current number of parcels       = 333611
    Current mass in system          = 2.21462144e-20
    Linear momentum                 = (-6.01501716e-21 2.32410248e-21 -1.3763977e-18)
   |Linear momentum|                = 1.37641281e-18
    Linear kinetic energy           = 2.76580129e-15
    model1:
        number of parcels added     = 500000
        mass introduced             = 3.31916729e-20
    Parcel fate (number, mass)      : patch .*
      - escape                      = 166389, 1.10454585e-20
      - stick                       = 0, 0

ExecutionTime = 736.16 s  ClockTime = 737 s

Time = 6.700e-06

Evolving kinematicCloud

Solving 3-D cloud kinematicCloud
Cloud: kinematicCloud
    Current number of parcels       = 331436
    Current mass in system          = 2.20018306e-20
    Linear momentum                 = (-1.15443702e-20 7.94799533e-21 -1.34227078e-18)
   |Linear momentum|                = 1.34234395e-18
    Linear kinetic energy           = 2.75610715e-15
    model1:
        number of parcels added     = 500000
        mass introduced             = 3.31916729e-20
    Parcel fate (number, mass)      : patch .*
      - escape                      = 168564, 1.11898423e-20
      - stick                       = 0, 0

ExecutionTime = 737.21 s  ClockTime = 738 s

Time = 6.800e-06

Evolving kinematicCloud

Solving 3-D cloud kinematicCloud
Cloud: kinematicCloud
    Current number of parcels       = 329366
    Current mass in system          = 2.18644171e-20
    Linear momentum                 = (-1.59383572e-20 3.11958402e-21 -1.30804615e-18)
   |Linear momentum|                = 1.30814697e-18
    Linear kinetic energy           = 2.74244367e-15
    model1:
        number of parcels added     = 500000
        mass introduced             = 3.31916729e-20
    Parcel fate (number, mass)      : patch .*
      - escape                      = 170634, 1.13272558e-20
      - stick                       = 0, 0

ExecutionTime = 738.27 s  ClockTime = 739 s

Time = 6.900e-06

Evolving kinematicCloud

Solving 3-D cloud kinematicCloud
Cloud: kinematicCloud
    Current number of parcels       = 327425
    Current mass in system          = 2.1735567e-20
    Linear momentum                 = (-1.72347359e-20 1.49649786e-21 -1.2861421e-18)
   |Linear momentum|                = 1.28625844e-18
    Linear kinetic energy           = 2.72926852e-15
    model1:
        number of parcels added     = 500000
        mass introduced             = 3.31916729e-20
    Parcel fate (number, mass)      : patch .*
      - escape                      = 172575, 1.14561059e-20
      - stick                       = 0, 0

ExecutionTime = 739.3 s  ClockTime = 740 s

Time = 7.000e-06

Evolving kinematicCloud

Solving 3-D cloud kinematicCloud
Cloud: kinematicCloud
    Current number of parcels       = 325497
    Current mass in system          = 2.16075799e-20
    Linear momentum                 = (-1.71186197e-20 6.08660343e-21 -1.2602959e-18)
   |Linear momentum|                = 1.26042685e-18
    Linear kinetic energy           = 2.71553622e-15
    model1:
        number of parcels added     = 500000
        mass introduced             = 3.31916729e-20
    Parcel fate (number, mass)      : patch .*
      - escape                      = 174503, 1.1584093e-20
      - stick                       = 0, 0

ExecutionTime = 743.75 s  ClockTime = 744 s

Time = 7.100e-06

Evolving kinematicCloud

Solving 3-D cloud kinematicCloud
Cloud: kinematicCloud
    Current number of parcels       = 323538
    Current mass in system          = 2.14775349e-20
    Linear momentum                 = (-2.09617942e-20 6.18335825e-21 -1.23365618e-18)
   |Linear momentum|                = 1.23384974e-18
    Linear kinetic energy           = 2.70749738e-15
    model1:
        number of parcels added     = 500000
        mass introduced             = 3.31916729e-20
    Parcel fate (number, mass)      : patch .*
      - escape                      = 176462, 1.1714138e-20
      - stick                       = 0, 0

ExecutionTime = 744.79 s  ClockTime = 745 s

Time = 7.200e-06

Evolving kinematicCloud

Solving 3-D cloud kinematicCloud
Cloud: kinematicCloud
    Current number of parcels       = 321564
    Current mass in system          = 2.13464942e-20
    Linear momentum                 = (-1.93066945e-20 2.64677921e-21 -1.2090662e-18)
   |Linear momentum|                = 1.20922324e-18
    Linear kinetic energy           = 2.69482825e-15
    model1:
        number of parcels added     = 500000
        mass introduced             = 3.31916729e-20
    Parcel fate (number, mass)      : patch .*
      - escape                      = 178436, 1.18451787e-20
      - stick                       = 0, 0

ExecutionTime = 745.82 s  ClockTime = 746 s

Time = 7.300e-06

Evolving kinematicCloud

Solving 3-D cloud kinematicCloud
Cloud: kinematicCloud
    Current number of parcels       = 319685
    Current mass in system          = 2.12217599e-20
    Linear momentum                 = (-1.14723955e-20 6.82552187e-21 -1.18649717e-18)
   |Linear momentum|                = 1.18657227e-18
    Linear kinetic energy           = 2.68106304e-15
    model1:
        number of parcels added     = 500000
        mass introduced             = 3.31916729e-20
    Parcel fate (number, mass)      : patch .*
      - escape                      = 180315, 1.1969913e-20
      - stick                       = 0, 0

ExecutionTime = 746.86 s  ClockTime = 747 s

Time = 7.400e-06

Evolving kinematicCloud

Solving 3-D cloud kinematicCloud
Cloud: kinematicCloud
    Current number of parcels       = 317783
    Current mass in system          = 2.10954988e-20
    Linear momentum                 = (-1.50382822e-20 1.57772257e-20 -1.16434479e-18)
   |Linear momentum|                = 1.16454878e-18
    Linear kinetic energy           = 2.66952254e-15
    model1:
        number of parcels added     = 500000
        mass introduced             = 3.31916729e-20
    Parcel fate (number, mass)      : patch .*
      - escape                      = 182217, 1.20961741e-20
      - stick                       = 0, 0

ExecutionTime = 747.88 s  ClockTime = 748 s

Time = 7.500e-06

Evolving kinematicCloud

Solving 3-D cloud kinematicCloud
Cloud: kinematicCloud
    Current number of parcels       = 315908
    Current mass in system          = 2.097103e-20
    Linear momentum                 = (-9.4353131e-21 1.45072834e-20 -1.14848492e-18)
   |Linear momentum|                = 1.1486153e-18
    Linear kinetic energy           = 2.65592503e-15
    model1:
        number of parcels added     = 500000
        mass introduced             = 3.31916729e-20
    Parcel fate (number, mass)      : patch .*
      - escape                      = 184092, 1.22206429e-20
      - stick                       = 0, 0

ExecutionTime = 748.91 s  ClockTime = 749 s

Time = 7.600e-06

Evolving kinematicCloud

Solving 3-D cloud kinematicCloud
Cloud: kinematicCloud
    Current number of parcels       = 314082
    Current mass in system          = 2.0849814e-20
    Linear momentum                 = (-4.55476957e-21 1.45867116e-20 -1.13567154e-18)
   |Linear momentum|                = 1.13577435e-18
    Linear kinetic energy           = 2.65157736e-15
    model1:
        number of parcels added     = 500000
        mass introduced             = 3.31916729e-20
    Parcel fate (number, mass)      : patch .*
      - escape                      = 185918, 1.23418589e-20
      - stick                       = 0, 0

ExecutionTime = 749.93 s  ClockTime = 750 s

Time = 7.700e-06

Evolving kinematicCloud

Solving 3-D cloud kinematicCloud
Cloud: kinematicCloud
    Current number of parcels       = 312248
    Current mass in system          = 2.0728067e-20
    Linear momentum                 = (-4.15221903e-21 1.90234053e-20 -1.1159319e-18)
   |Linear momentum|                = 1.11610176e-18
    Linear kinetic energy           = 2.64385518e-15
    model1:
        number of parcels added     = 500000
        mass introduced             = 3.31916729e-20
    Parcel fate (number, mass)      : patch .*
      - escape                      = 187752, 1.24636059e-20
      - stick                       = 0, 0

ExecutionTime = 750.95 s  ClockTime = 751 s

Time = 7.800e-06

Evolving kinematicCloud

Solving 3-D cloud kinematicCloud
Cloud: kinematicCloud
    Current number of parcels       = 310409
    Current mass in system          = 2.0605988e-20
    Linear momentum                 = (9.6655641e-22 2.01929684e-20 -1.09745169e-18)
   |Linear momentum|                = 1.09763787e-18
    Linear kinetic energy           = 2.6364952e-15
    model1:
        number of parcels added     = 500000
        mass introduced             = 3.31916729e-20
    Parcel fate (number, mass)      : patch .*
      - escape                      = 189591, 1.25856849e-20
      - stick                       = 0, 0

ExecutionTime = 751.96 s  ClockTime = 752 s

Time = 7.900e-06

Evolving kinematicCloud

Solving 3-D cloud kinematicCloud
Cloud: kinematicCloud
    Current number of parcels       = 308633
    Current mass in system          = 2.04880912e-20
    Linear momentum                 = (2.93634191e-21 1.32156596e-20 -1.07974748e-18)
   |Linear momentum|                = 1.07983235e-18
    Linear kinetic energy           = 2.62599766e-15
    model1:
        number of parcels added     = 500000
        mass introduced             = 3.31916729e-20
    Parcel fate (number, mass)      : patch .*
      - escape                      = 191367, 1.27035817e-20
      - stick                       = 0, 0

ExecutionTime = 752.96 s  ClockTime = 754 s

Time = 8.000e-06

Evolving kinematicCloud

Solving 3-D cloud kinematicCloud
Cloud: kinematicCloud
    Current number of parcels       = 306846
    Current mass in system          = 2.03694641e-20
    Linear momentum                 = (1.30530891e-21 1.94384108e-20 -1.06284901e-18)
   |Linear momentum|                = 1.06302755e-18
    Linear kinetic energy           = 2.62816783e-15
    model1:
        number of parcels added     = 500000
        mass introduced             = 3.31916729e-20
    Parcel fate (number, mass)      : patch .*
      - escape                      = 193154, 1.28222088e-20
      - stick                       = 0, 0

ExecutionTime = 757.34 s  ClockTime = 758 s

Time = 8.100e-06

Evolving kinematicCloud

Solving 3-D cloud kinematicCloud
Cloud: kinematicCloud
    Current number of parcels       = 305150
    Current mass in system          = 2.0256878e-20
    Linear momentum                 = (-1.51502992e-21 1.65947741e-20 -1.04930384e-18)
   |Linear momentum|                = 1.04943615e-18
    Linear kinetic energy           = 2.61376969e-15
    model1:
        number of parcels added     = 500000
        mass introduced             = 3.31916729e-20
    Parcel fate (number, mass)      : patch .*
      - escape                      = 194850, 1.2934795e-20
      - stick                       = 0, 0

ExecutionTime = 758.35 s  ClockTime = 759 s

Time = 8.200e-06

Evolving kinematicCloud

Solving 3-D cloud kinematicCloud
Cloud: kinematicCloud
    Current number of parcels       = 303471
    Current mass in system          = 2.01454203e-20
    Linear momentum                 = (-1.32348342e-21 1.34578073e-20 -1.03456051e-18)
   |Linear momentum|                = 1.03464889e-18
    Linear kinetic energy           = 2.60881956e-15
    model1:
        number of parcels added     = 500000
        mass introduced             = 3.31916729e-20
    Parcel fate (number, mass)      : patch .*
      - escape                      = 196529, 1.30462526e-20
      - stick                       = 0, 0

ExecutionTime = 759.35 s  ClockTime = 760 s

Time = 8.300e-06

Evolving kinematicCloud

Solving 3-D cloud kinematicCloud
Cloud: kinematicCloud
    Current number of parcels       = 301758
    Current mass in system          = 2.00317057e-20
    Linear momentum                 = (4.99800585e-21 6.85367674e-21 -1.02055397e-18)
   |Linear momentum|                = 1.02058922e-18
    Linear kinetic energy           = 2.60212294e-15
    model1:
        number of parcels added     = 500000
        mass introduced             = 3.31916729e-20
    Parcel fate (number, mass)      : patch .*
      - escape                      = 198242, 1.31599673e-20
      - stick                       = 0, 0

ExecutionTime = 760.35 s  ClockTime = 761 s

Time = 8.400e-06

Evolving kinematicCloud

Solving 3-D cloud kinematicCloud
Cloud: kinematicCloud
    Current number of parcels       = 300150
    Current mass in system          = 1.99249613e-20
    Linear momentum                 = (1.57830781e-21 8.25607623e-21 -9.98801968e-19)
   |Linear momentum|                = 9.98837337e-19
    Linear kinetic energy           = 2.58545396e-15
    model1:
        number of parcels added     = 500000
        mass introduced             = 3.31916729e-20
    Parcel fate (number, mass)      : patch .*
      - escape                      = 199850, 1.32667117e-20
      - stick                       = 0, 0

ExecutionTime = 761.34 s  ClockTime = 762 s

Time = 8.500e-06

Evolving kinematicCloud

Solving 3-D cloud kinematicCloud
Cloud: kinematicCloud
    Current number of parcels       = 298550
    Current mass in system          = 1.98187479e-20
    Linear momentum                 = (1.65286449e-21 1.38490459e-20 -9.88371058e-19)
   |Linear momentum|                = 9.88469462e-19
    Linear kinetic energy           = 2.58103296e-15
    model1:
        number of parcels added     = 500000
        mass introduced             = 3.31916729e-20
    Parcel fate (number, mass)      : patch .*
      - escape                      = 201450, 1.3372925e-20
      - stick                       = 0, 0

ExecutionTime = 762.33 s  ClockTime = 763 s

Time = 8.600e-06

Evolving kinematicCloud

Solving 3-D cloud kinematicCloud
Cloud: kinematicCloud
    Current number of parcels       = 296846
    Current mass in system          = 1.97056307e-20
    Linear momentum                 = (-5.45840493e-21 2.09822036e-20 -9.8010912e-19)
   |Linear momentum|                = 9.80348884e-19
    Linear kinetic energy           = 2.58276e-15
    model1:
        number of parcels added     = 500000
        mass introduced             = 3.31916729e-20
    Parcel fate (number, mass)      : patch .*
      - escape                      = 203154, 1.34860423e-20
      - stick                       = 0, 0

ExecutionTime = 763.32 s  ClockTime = 764 s

Time = 8.700e-06

Evolving kinematicCloud

Solving 3-D cloud kinematicCloud
Cloud: kinematicCloud
    Current number of parcels       = 295200
    Current mass in system          = 1.95963637e-20
    Linear momentum                 = (-1.04428367e-20 2.14295204e-20 -9.7479718e-19)
   |Linear momentum|                = 9.75088622e-19
    Linear kinetic energy           = 2.56781603e-15
    model1:
        number of parcels added     = 500000
        mass introduced             = 3.31916729e-20
    Parcel fate (number, mass)      : patch .*
      - escape                      = 204800, 1.35953092e-20
      - stick                       = 0, 0

ExecutionTime = 764.31 s  ClockTime = 765 s

Time = 8.800e-06

Evolving kinematicCloud

Solving 3-D cloud kinematicCloud
Cloud: kinematicCloud
    Current number of parcels       = 293556
    Current mass in system          = 1.94872295e-20
    Linear momentum                 = (-9.69287993e-21 2.23254668e-20 -9.71126956e-19)
   |Linear momentum|                = 9.71431903e-19
    Linear kinetic energy           = 2.5652676e-15
    model1:
        number of parcels added     = 500000
        mass introduced             = 3.31916729e-20
    Parcel fate (number, mass)      : patch .*
      - escape                      = 206444, 1.37044435e-20
      - stick                       = 0, 0

ExecutionTime = 765.29 s  ClockTime = 766 s

Time = 8.900e-06

Evolving kinematicCloud

Solving 3-D cloud kinematicCloud
Cloud: kinematicCloud
    Current number of parcels       = 291949
    Current mass in system          = 1.93805514e-20
    Linear momentum                 = (-1.08720257e-20 2.52171405e-20 -9.60951207e-19)
   |Linear momentum|                = 9.61343501e-19
    Linear kinetic energy           = 2.55292198e-15
    model1:
        number of parcels added     = 500000
        mass introduced             = 3.31916729e-20
    Parcel fate (number, mass)      : patch .*
      - escape                      = 208051, 1.38111215e-20
      - stick                       = 0, 0

ExecutionTime = 766.26 s  ClockTime = 767 s

Time = 9.000e-06

Evolving kinematicCloud

Solving 3-D cloud kinematicCloud
Cloud: kinematicCloud
    Current number of parcels       = 290368
    Current mass in system          = 1.92755994e-20
    Linear momentum                 = (-6.75024295e-21 2.51953096e-20 -9.50668639e-19)
   |Linear momentum|                = 9.51026409e-19
    Linear kinetic energy           = 2.55343443e-15
    model1:
        number of parcels added     = 500000
        mass introduced             = 3.31916729e-20
    Parcel fate (number, mass)      : patch .*
      - escape                      = 209632, 1.39160736e-20
      - stick                       = 0, 0

ExecutionTime = 770.54 s  ClockTime = 771 s

Time = 9.100e-06

Evolving kinematicCloud

Solving 3-D cloud kinematicCloud
Cloud: kinematicCloud
    Current number of parcels       = 288793
    Current mass in system          = 1.91710456e-20
    Linear momentum                 = (-6.73303442e-21 2.35728958e-20 -9.47867363e-19)
   |Linear momentum|                = 9.48184345e-19
    Linear kinetic energy           = 2.55057953e-15
    model1:
        number of parcels added     = 500000
        mass introduced             = 3.31916729e-20
    Parcel fate (number, mass)      : patch .*
      - escape                      = 211207, 1.40206274e-20
      - stick                       = 0, 0

ExecutionTime = 771.53 s  ClockTime = 772 s

Time = 9.200e-06

Evolving kinematicCloud

Solving 3-D cloud kinematicCloud
Cloud: kinematicCloud
    Current number of parcels       = 287320
    Current mass in system          = 1.90732629e-20
    Linear momentum                 = (-1.24692756e-20 1.77566167e-20 -9.47362241e-19)
   |Linear momentum|                = 9.47610678e-19
    Linear kinetic energy           = 2.55292438e-15
    model1:
        number of parcels added     = 500000
        mass introduced             = 3.31916729e-20
    Parcel fate (number, mass)      : patch .*
      - escape                      = 212680, 1.411841e-20
      - stick                       = 0, 0

ExecutionTime = 772.51 s  ClockTime = 773 s

Time = 9.300e-06

Evolving kinematicCloud

Solving 3-D cloud kinematicCloud
Cloud: kinematicCloud
    Current number of parcels       = 285862
    Current mass in system          = 1.8976476e-20
    Linear momentum                 = (-1.51584723e-20 1.45928256e-20 -9.38278999e-19)
   |Linear momentum|                = 9.38514896e-19
    Linear kinetic energy           = 2.56626065e-15
    model1:
        number of parcels added     = 500000
        mass introduced             = 3.31916729e-20
    Parcel fate (number, mass)      : patch .*
      - escape                      = 214138, 1.4215197e-20
      - stick                       = 0, 0

ExecutionTime = 773.47 s  ClockTime = 774 s

Time = 9.400e-06

Evolving kinematicCloud

Solving 3-D cloud kinematicCloud
Cloud: kinematicCloud
    Current number of parcels       = 284286
    Current mass in system          = 1.88718559e-20
    Linear momentum                 = (-1.93376475e-20 1.05312883e-20 -9.39785213e-19)
   |Linear momentum|                = 9.40043137e-19
    Linear kinetic energy           = 2.54057613e-15
    model1:
        number of parcels added     = 500000
        mass introduced             = 3.31916729e-20
    Parcel fate (number, mass)      : patch .*
      - escape                      = 215714, 1.43198171e-20
      - stick                       = 0, 0

ExecutionTime = 774.44 s  ClockTime = 775 s

Time = 9.500e-06

Evolving kinematicCloud

Solving 3-D cloud kinematicCloud
Cloud: kinematicCloud
    Current number of parcels       = 282782
    Current mass in system          = 1.87720153e-20
    Linear momentum                 = (-1.51155937e-20 7.45537096e-21 -9.40059693e-19)
   |Linear momentum|                = 9.40210769e-19
    Linear kinetic energy           = 2.54105459e-15
    model1:
        number of parcels added     = 500000
        mass introduced             = 3.31916729e-20
    Parcel fate (number, mass)      : patch .*
      - escape                      = 217218, 1.44196577e-20
      - stick                       = 0, 0

ExecutionTime = 775.4 s  ClockTime = 776 s

Time = 9.600e-06

Evolving kinematicCloud

Solving 3-D cloud kinematicCloud
Cloud: kinematicCloud
    Current number of parcels       = 281288
    Current mass in system          = 1.86728386e-20
    Linear momentum                 = (-1.17575522e-20 4.84811839e-21 -9.36946855e-19)
   |Linear momentum|                = 9.37033166e-19
    Linear kinetic energy           = 2.55437466e-15
    model1:
        number of parcels added     = 500000
        mass introduced             = 3.31916729e-20
    Parcel fate (number, mass)      : patch .*
      - escape                      = 218712, 1.45188344e-20
      - stick                       = 0, 0

ExecutionTime = 776.36 s  ClockTime = 777 s

Time = 9.700e-06

Evolving kinematicCloud

Solving 3-D cloud kinematicCloud
Cloud: kinematicCloud
    Current number of parcels       = 279807
    Current mass in system          = 1.85745248e-20
    Linear momentum                 = (-9.99487491e-21 1.2177411e-20 -9.32770902e-19)
   |Linear momentum|                = 9.3290393e-19
    Linear kinetic energy           = 2.56231274e-15
    model1:
        number of parcels added     = 500000
        mass introduced             = 3.31916729e-20
    Parcel fate (number, mass)      : patch .*
      - escape                      = 220193, 1.46171481e-20
      - stick                       = 0, 0

ExecutionTime = 777.32 s  ClockTime = 778 s

Time = 9.800e-06

Evolving kinematicCloud

Solving 3-D cloud kinematicCloud
Cloud: kinematicCloud
    Current number of parcels       = 278328
    Current mass in system          = 1.84763439e-20
    Linear momentum                 = (-1.21415499e-20 1.25200239e-20 -9.26116759e-19)
   |Linear momentum|                = 9.26280961e-19
    Linear kinetic energy           = 2.56092468e-15
    model1:
        number of parcels added     = 500000
        mass introduced             = 3.31916729e-20
    Parcel fate (number, mass)      : patch .*
      - escape                      = 221672, 1.47153291e-20
      - stick                       = 0, 0

ExecutionTime = 778.28 s  ClockTime = 779 s

Time = 9.900e-06

Evolving kinematicCloud

Solving 3-D cloud kinematicCloud
Cloud: kinematicCloud
    Current number of parcels       = 276939
    Current mass in system          = 1.83841374e-20
    Linear momentum                 = (-4.5639778e-21 1.33333745e-20 -9.2047236e-19)
   |Linear momentum|                = 9.20580237e-19
    Linear kinetic energy           = 2.58141302e-15
    model1:
        number of parcels added     = 500000
        mass introduced             = 3.31916729e-20
    Parcel fate (number, mass)      : patch .*
      - escape                      = 223061, 1.48075356e-20
      - stick                       = 0, 0

ExecutionTime = 779.24 s  ClockTime = 780 s

Time = 1.000e-05

Evolving kinematicCloud

Solving 3-D cloud kinematicCloud
Cloud: kinematicCloud
    Current number of parcels       = 275452
    Current mass in system          = 1.82854254e-20
    Linear momentum                 = (-5.44428603e-21 1.71257558e-20 -9.16407571e-19)
   |Linear momentum|                = 9.16583748e-19
    Linear kinetic energy           = 2.58066497e-15
    model1:
        number of parcels added     = 500000
        mass introduced             = 3.31916729e-20
    Parcel fate (number, mass)      : patch .*
      - escape                      = 224548, 1.49062476e-20
      - stick                       = 0, 0

ExecutionTime = 783.47 s  ClockTime = 784 s

Time = 1.010e-05

Evolving kinematicCloud

Solving 3-D cloud kinematicCloud
Cloud: kinematicCloud
    Current number of parcels       = 274050
    Current mass in system          = 1.81923559e-20
    Linear momentum                 = (-6.05363191e-21 7.1847859e-21 -9.21915147e-19)
   |Linear momentum|                = 9.21963018e-19
    Linear kinetic energy           = 2.58131649e-15
    model1:
        number of parcels added     = 500000
        mass introduced             = 3.31916729e-20
    Parcel fate (number, mass)      : patch .*
      - escape                      = 225950, 1.49993171e-20
      - stick                       = 0, 0

ExecutionTime = 784.42 s  ClockTime = 785 s

Time = 1.020e-05

Evolving kinematicCloud

Solving 3-D cloud kinematicCloud
Cloud: kinematicCloud
    Current number of parcels       = 272688
    Current mass in system          = 1.81019418e-20
    Linear momentum                 = (-1.09217776e-20 7.65688835e-21 -9.17407431e-19)
   |Linear momentum|                = 9.17504391e-19
    Linear kinetic energy           = 2.59500365e-15
    model1:
        number of parcels added     = 500000
        mass introduced             = 3.31916729e-20
    Parcel fate (number, mass)      : patch .*
      - escape                      = 227312, 1.50897312e-20
      - stick                       = 0, 0

ExecutionTime = 785.37 s  ClockTime = 786 s

Time = 1.030e-05

Evolving kinematicCloud

Solving 3-D cloud kinematicCloud
Cloud: kinematicCloud
    Current number of parcels       = 271278
    Current mass in system          = 1.80083413e-20
    Linear momentum                 = (-1.65738823e-20 1.04454638e-20 -9.15929191e-19)
   |Linear momentum|                = 9.16138682e-19
    Linear kinetic energy           = 2.6050753e-15
    model1:
        number of parcels added     = 500000
        mass introduced             = 3.31916729e-20
    Parcel fate (number, mass)      : patch .*
      - escape                      = 228722, 1.51833317e-20
      - stick                       = 0, 0

ExecutionTime = 786.31 s  ClockTime = 787 s

Time = 1.040e-05

Evolving kinematicCloud

Solving 3-D cloud kinematicCloud
Cloud: kinematicCloud
    Current number of parcels       = 269882
    Current mass in system          = 1.79156701e-20
    Linear momentum                 = (-1.20654132e-20 9.45653693e-21 -9.15425461e-19)
   |Linear momentum|                = 9.15553808e-19
    Linear kinetic energy           = 2.61870139e-15
    model1:
        number of parcels added     = 500000
        mass introduced             = 3.31916729e-20
    Parcel fate (number, mass)      : patch .*
      - escape                      = 230118, 1.52760028e-20
      - stick                       = 0, 0

ExecutionTime = 787.25 s  ClockTime = 788 s

Time = 1.050e-05

Evolving kinematicCloud

Solving 3-D cloud kinematicCloud
Cloud: kinematicCloud
    Current number of parcels       = 268525
    Current mass in system          = 1.78255879e-20
    Linear momentum                 = (-1.03425557e-20 1.03154265e-20 -9.11840627e-19)
   |Linear momentum|                = 9.11957623e-19
    Linear kinetic energy           = 2.62053368e-15
    model1:
        number of parcels added     = 500000
        mass introduced             = 3.31916729e-20
    Parcel fate (number, mass)      : patch .*
      - escape                      = 231475, 1.5366085e-20
      - stick                       = 0, 0

ExecutionTime = 788.2 s  ClockTime = 789 s

Time = 1.060e-05

Evolving kinematicCloud

Solving 3-D cloud kinematicCloud
Cloud: kinematicCloud
    Current number of parcels       = 267191
    Current mass in system          = 1.77370326e-20
    Linear momentum                 = (-1.06524291e-20 9.30664322e-21 -9.15481287e-19)
   |Linear momentum|                = 9.1559056e-19
    Linear kinetic energy           = 2.64097035e-15
    model1:
        number of parcels added     = 500000
        mass introduced             = 3.31916729e-20
    Parcel fate (number, mass)      : patch .*
      - escape                      = 232809, 1.54546404e-20
      - stick                       = 0, 0

ExecutionTime = 789.13 s  ClockTime = 790 s

Time = 1.070e-05

Evolving kinematicCloud

Solving 3-D cloud kinematicCloud
Cloud: kinematicCloud
    Current number of parcels       = 265877
    Current mass in system          = 1.76498048e-20
    Linear momentum                 = (-3.42053314e-21 7.6553833e-21 -9.15436882e-19)
   |Linear momentum|                = 9.15475281e-19
    Linear kinetic energy           = 2.63602743e-15
    model1:
        number of parcels added     = 500000
        mass introduced             = 3.31916729e-20
    Parcel fate (number, mass)      : patch .*
      - escape                      = 234123, 1.55418681e-20
      - stick                       = 0, 0

ExecutionTime = 790.07 s  ClockTime = 791 s

Time = 1.080e-05

Evolving kinematicCloud

Solving 3-D cloud kinematicCloud
Cloud: kinematicCloud
    Current number of parcels       = 264567
    Current mass in system          = 1.75628427e-20
    Linear momentum                 = (-6.39134342e-21 5.48614094e-21 -9.2168235e-19)
   |Linear momentum|                = 9.21720837e-19
    Linear kinetic energy           = 2.65853763e-15
    model1:
        number of parcels added     = 500000
        mass introduced             = 3.31916729e-20
    Parcel fate (number, mass)      : patch .*
      - escape                      = 235433, 1.56288303e-20
      - stick                       = 0, 0

ExecutionTime = 791.01 s  ClockTime = 792 s

Time = 1.090e-05

Evolving kinematicCloud

Solving 3-D cloud kinematicCloud
Cloud: kinematicCloud
    Current number of parcels       = 263265
    Current mass in system          = 1.74764115e-20
    Linear momentum                 = (-4.03676274e-21 4.94069423e-21 -9.21980867e-19)
   |Linear momentum|                = 9.22002942e-19
    Linear kinetic energy           = 2.68553915e-15
    model1:
        number of parcels added     = 500000
        mass introduced             = 3.31916729e-20
    Parcel fate (number, mass)      : patch .*
      - escape                      = 236735, 1.57152614e-20
      - stick                       = 0, 0

ExecutionTime = 791.95 s  ClockTime = 792 s

Time = 1.100e-05

Evolving kinematicCloud

Solving 3-D cloud kinematicCloud
Cloud: kinematicCloud
    Current number of parcels       = 261901
    Current mass in system          = 1.73858647e-20
    Linear momentum                 = (-9.0739111e-21 1.01061657e-20 -9.23513593e-19)
   |Linear momentum|                = 9.23613461e-19
    Linear kinetic energy           = 2.66992224e-15
    model1:
        number of parcels added     = 500000
        mass introduced             = 3.31916729e-20
    Parcel fate (number, mass)      : patch .*
      - escape                      = 238099, 1.58058083e-20
      - stick                       = 0, 0

ExecutionTime = 796.13 s  ClockTime = 797 s

Time = 1.110e-05

Evolving kinematicCloud

Solving 3-D cloud kinematicCloud
Cloud: kinematicCloud
    Current number of parcels       = 260632
    Current mass in system          = 1.73016242e-20
    Linear momentum                 = (-2.43190989e-21 1.12010162e-20 -9.1905482e-19)
   |Linear momentum|                = 9.19126291e-19
    Linear kinetic energy           = 2.6744447e-15
    model1:
[...]
    Linear momentum                 = (3.94189394e-21 -6.42459152e-22 -2.84278718e-20)
   |Linear momentum|                = 2.87070579e-20
    Linear kinetic energy           = 1.33267725e-16
    model1:
        number of parcels added     = 500000
        mass introduced             = 3.31916729e-20
    Parcel fate (number, mass)      : patch .*
      - escape                      = 497076, 3.29975677e-20
      - stick                       = 0, 0

ExecutionTime = 1274.6 s  ClockTime = 1275 s

Time = 9.730e-05

Evolving kinematicCloud

Solving 3-D cloud kinematicCloud
Cloud: kinematicCloud
    Current number of parcels       = 2906
    Current mass in system          = 1.92910003e-22
    Linear momentum                 = (4.35606964e-21 -6.96599614e-22 -2.72867734e-20)
   |Linear momentum|                = 2.76410672e-20
    Linear kinetic energy           = 1.53137508e-16
    model1:
        number of parcels added     = 500000
        mass introduced             = 3.31916729e-20
    Parcel fate (number, mass)      : patch .*
      - escape                      = 497094, 3.29987626e-20
      - stick                       = 0, 0

ExecutionTime = 1274.63 s  ClockTime = 1275 s

Time = 9.740e-05

Evolving kinematicCloud

Solving 3-D cloud kinematicCloud
Cloud: kinematicCloud
    Current number of parcels       = 2886
    Current mass in system          = 1.91582336e-22
    Linear momentum                 = (3.13597031e-21 -4.08625802e-21 -2.7985974e-20)
   |Linear momentum|                = 2.8456046e-20
    Linear kinetic energy           = 1.2723443e-16
    model1:
        number of parcels added     = 500000
        mass introduced             = 3.31916729e-20
    Parcel fate (number, mass)      : patch .*
      - escape                      = 497114, 3.30000903e-20
      - stick                       = 0, 0

ExecutionTime = 1274.65 s  ClockTime = 1275 s

Time = 9.750e-05

Evolving kinematicCloud

Solving 3-D cloud kinematicCloud
Cloud: kinematicCloud
    Current number of parcels       = 2870
    Current mass in system          = 1.90520203e-22
    Linear momentum                 = (1.96073069e-21 -1.35918546e-21 -2.62071859e-20)
   |Linear momentum|                = 2.63155552e-20
    Linear kinetic energy           = 1.15498585e-16
    model1:
        number of parcels added     = 500000
        mass introduced             = 3.31916729e-20
    Parcel fate (number, mass)      : patch .*
      - escape                      = 497130, 3.30011524e-20
      - stick                       = 0, 0

ExecutionTime = 1274.68 s  ClockTime = 1275 s

Time = 9.760e-05

Evolving kinematicCloud

Solving 3-D cloud kinematicCloud
Cloud: kinematicCloud
    Current number of parcels       = 2848
    Current mass in system          = 1.89059769e-22
    Linear momentum                 = (4.16482509e-22 -2.60399802e-21 -2.7935793e-20)
   |Linear momentum|                = 2.80599856e-20
    Linear kinetic energy           = 1.06555618e-16
    model1:
        number of parcels added     = 500000
        mass introduced             = 3.31916729e-20
    Parcel fate (number, mass)      : patch .*
      - escape                      = 497152, 3.30026129e-20
      - stick                       = 0, 0

ExecutionTime = 1274.7 s  ClockTime = 1275 s

Time = 9.770e-05

Evolving kinematicCloud

Solving 3-D cloud kinematicCloud
Cloud: kinematicCloud
    Current number of parcels       = 2831
    Current mass in system          = 1.87931252e-22
    Linear momentum                 = (-8.57692302e-22 -4.13802894e-21 -2.4679609e-20)
   |Linear momentum|                = 2.50388103e-20
    Linear kinetic energy           = 9.57652173e-17
    model1:
        number of parcels added     = 500000
        mass introduced             = 3.31916729e-20
    Parcel fate (number, mass)      : patch .*
      - escape                      = 497169, 3.30037414e-20
      - stick                       = 0, 0

ExecutionTime = 1274.73 s  ClockTime = 1275 s

Time = 9.780e-05

Evolving kinematicCloud

Solving 3-D cloud kinematicCloud
Cloud: kinematicCloud
    Current number of parcels       = 2820
    Current mass in system          = 1.87201035e-22
    Linear momentum                 = (-4.48992693e-22 -3.18017865e-21 -2.5316339e-20)
   |Linear momentum|                = 2.55192506e-20
    Linear kinetic energy           = 8.97049944e-17
    model1:
        number of parcels added     = 500000
        mass introduced             = 3.31916729e-20
    Parcel fate (number, mass)      : patch .*
      - escape                      = 497180, 3.30044716e-20
      - stick                       = 0, 0

ExecutionTime = 1274.75 s  ClockTime = 1275 s

Time = 9.790e-05

Evolving kinematicCloud

Solving 3-D cloud kinematicCloud
Cloud: kinematicCloud
    Current number of parcels       = 2806
    Current mass in system          = 1.86271668e-22
    Linear momentum                 = (3.95772954e-23 3.33157827e-22 -2.56850581e-20)
   |Linear momentum|                = 2.56872492e-20
    Linear kinetic energy           = 8.05403866e-17
    model1:
        number of parcels added     = 500000
        mass introduced             = 3.31916729e-20
    Parcel fate (number, mass)      : patch .*
      - escape                      = 497194, 3.3005401e-20
      - stick                       = 0, 0

ExecutionTime = 1274.77 s  ClockTime = 1275 s

Time = 9.800e-05

Evolving kinematicCloud

Solving 3-D cloud kinematicCloud
Cloud: kinematicCloud
    Current number of parcels       = 2797
    Current mass in system          = 1.85674218e-22
    Linear momentum                 = (6.29999528e-22 3.33119479e-21 -2.70964686e-20)
   |Linear momentum|                = 2.73077346e-20
    Linear kinetic energy           = 9.72548346e-17
    model1:
        number of parcels added     = 500000
        mass introduced             = 3.31916729e-20
    Parcel fate (number, mass)      : patch .*
      - escape                      = 497203, 3.30059984e-20
      - stick                       = 0, 0

ExecutionTime = 1277.38 s  ClockTime = 1278 s

Time = 9.810e-05

Evolving kinematicCloud

Solving 3-D cloud kinematicCloud
Cloud: kinematicCloud
    Current number of parcels       = 2785
    Current mass in system          = 1.84877618e-22
    Linear momentum                 = (1.39772069e-21 3.0123455e-21 -2.5726274e-20)
   |Linear momentum|                = 2.5939719e-20
    Linear kinetic energy           = 1.05053885e-16
    model1:
        number of parcels added     = 500000
        mass introduced             = 3.31916729e-20
    Parcel fate (number, mass)      : patch .*
      - escape                      = 497215, 3.3006795e-20
      - stick                       = 0, 0

ExecutionTime = 1277.4 s  ClockTime = 1278 s

Time = 9.820e-05

Evolving kinematicCloud

Solving 3-D cloud kinematicCloud
Cloud: kinematicCloud
    Current number of parcels       = 2770
    Current mass in system          = 1.83881868e-22
    Linear momentum                 = (-4.25603137e-23 9.05245213e-22 -2.47941089e-20)
   |Linear momentum|                = 2.48106653e-20
    Linear kinetic energy           = 9.0946096e-17
    model1:
        number of parcels added     = 500000
        mass introduced             = 3.31916729e-20
    Parcel fate (number, mass)      : patch .*
      - escape                      = 497230, 3.30077908e-20
      - stick                       = 0, 0

ExecutionTime = 1277.42 s  ClockTime = 1278 s

Time = 9.830e-05

Evolving kinematicCloud

Solving 3-D cloud kinematicCloud
Cloud: kinematicCloud
    Current number of parcels       = 2757
    Current mass in system          = 1.83018884e-22
    Linear momentum                 = (-1.23707739e-22 1.00629083e-21 -2.70215913e-20)
   |Linear momentum|                = 2.7040605e-20
    Linear kinetic energy           = 8.2189559e-17
    model1:
        number of parcels added     = 500000
        mass introduced             = 3.31916729e-20
    Parcel fate (number, mass)      : patch .*
      - escape                      = 497243, 3.30086537e-20
      - stick                       = 0, 0

ExecutionTime = 1277.45 s  ClockTime = 1278 s

Time = 9.840e-05

Evolving kinematicCloud

Solving 3-D cloud kinematicCloud
Cloud: kinematicCloud
    Current number of parcels       = 2744
    Current mass in system          = 1.82155901e-22
    Linear momentum                 = (3.21543561e-22 5.70368836e-22 -2.7473965e-20)
   |Linear momentum|                = 2.7481766e-20
    Linear kinetic energy           = 8.30429112e-17
    model1:
        number of parcels added     = 500000
        mass introduced             = 3.31916729e-20
    Parcel fate (number, mass)      : patch .*
      - escape                      = 497256, 3.30095167e-20
      - stick                       = 0, 0

ExecutionTime = 1277.47 s  ClockTime = 1278 s

Time = 9.850e-05

Evolving kinematicCloud

Solving 3-D cloud kinematicCloud
Cloud: kinematicCloud
    Current number of parcels       = 2732
    Current mass in system          = 1.81359301e-22
    Linear momentum                 = (9.80166035e-22 3.2095281e-21 -2.74907646e-20)
   |Linear momentum|                = 2.76948359e-20
    Linear kinetic energy           = 7.88304664e-17
    model1:
        number of parcels added     = 500000
        mass introduced             = 3.31916729e-20
    Parcel fate (number, mass)      : patch .*
      - escape                      = 497268, 3.30103133e-20
      - stick                       = 0, 0

ExecutionTime = 1277.49 s  ClockTime = 1278 s

Time = 9.860e-05

Evolving kinematicCloud

Solving 3-D cloud kinematicCloud
Cloud: kinematicCloud
    Current number of parcels       = 2725
    Current mass in system          = 1.80894617e-22
    Linear momentum                 = (2.74559834e-21 4.69961776e-21 -2.78166184e-20)
   |Linear momentum|                = 2.83441171e-20
    Linear kinetic energy           = 9.5716385e-17
    model1:
        number of parcels added     = 500000
        mass introduced             = 3.31916729e-20
    Parcel fate (number, mass)      : patch .*
      - escape                      = 497275, 3.3010778e-20
      - stick                       = 0, 0

ExecutionTime = 1277.51 s  ClockTime = 1278 s

Time = 9.870e-05

Evolving kinematicCloud

Solving 3-D cloud kinematicCloud
Cloud: kinematicCloud
    Current number of parcels       = 2715
    Current mass in system          = 1.80230784e-22
    Linear momentum                 = (1.02207585e-21 3.7628575e-21 -2.78544027e-20)
   |Linear momentum|                = 2.8125993e-20
    Linear kinetic energy           = 1.10962493e-16
    model1:
        number of parcels added     = 500000
        mass introduced             = 3.31916729e-20
    Parcel fate (number, mass)      : patch .*
      - escape                      = 497285, 3.30114418e-20
      - stick                       = 0, 0

ExecutionTime = 1277.54 s  ClockTime = 1278 s

Time = 9.880e-05

Evolving kinematicCloud

Solving 3-D cloud kinematicCloud
Cloud: kinematicCloud
    Current number of parcels       = 2707
    Current mass in system          = 1.79699717e-22
    Linear momentum                 = (8.77053406e-22 1.85329974e-21 -2.71006124e-20)
   |Linear momentum|                = 2.71780635e-20
    Linear kinetic energy           = 1.09328938e-16
    model1:
        number of parcels added     = 500000
        mass introduced             = 3.31916729e-20
    Parcel fate (number, mass)      : patch .*
      - escape                      = 497293, 3.30119729e-20
      - stick                       = 0, 0

ExecutionTime = 1277.56 s  ClockTime = 1278 s

Time = 9.890e-05

Evolving kinematicCloud

Solving 3-D cloud kinematicCloud
Cloud: kinematicCloud
    Current number of parcels       = 2692
    Current mass in system          = 1.78703967e-22
    Linear momentum                 = (-2.32789162e-22 1.29757022e-21 -2.6089508e-20)
   |Linear momentum|                = 2.61227928e-20
    Linear kinetic energy           = 1.04968346e-16
    model1:
        number of parcels added     = 500000
        mass introduced             = 3.31916729e-20
    Parcel fate (number, mass)      : patch .*
      - escape                      = 497308, 3.30129687e-20
      - stick                       = 0, 0

ExecutionTime = 1277.58 s  ClockTime = 1278 s

Time = 9.900e-05

Evolving kinematicCloud

Solving 3-D cloud kinematicCloud
Cloud: kinematicCloud
    Current number of parcels       = 2680
    Current mass in system          = 1.77907367e-22
    Linear momentum                 = (5.37771258e-22 2.83909633e-21 -2.61754959e-20)
   |Linear momentum|                = 2.63345068e-20
    Linear kinetic energy           = 8.80047024e-17
    model1:
        number of parcels added     = 500000
        mass introduced             = 3.31916729e-20
    Parcel fate (number, mass)      : patch .*
      - escape                      = 497320, 3.30137653e-20
      - stick                       = 0, 0

ExecutionTime = 1280.17 s  ClockTime = 1281 s

Time = 9.910e-05

Evolving kinematicCloud

Solving 3-D cloud kinematicCloud
Cloud: kinematicCloud
    Current number of parcels       = 2667
    Current mass in system          = 1.77044383e-22
    Linear momentum                 = (2.66638276e-22 1.72209258e-21 -2.51380214e-20)
   |Linear momentum|                = 2.51983495e-20
    Linear kinetic energy           = 9.91310577e-17
    model1:
        number of parcels added     = 500000
        mass introduced             = 3.31916729e-20
    Parcel fate (number, mass)      : patch .*
      - escape                      = 497333, 3.30146283e-20
      - stick                       = 0, 0

ExecutionTime = 1280.2 s  ClockTime = 1281 s

Time = 9.920e-05

Evolving kinematicCloud

Solving 3-D cloud kinematicCloud
Cloud: kinematicCloud
    Current number of parcels       = 2659
    Current mass in system          = 1.76513317e-22
    Linear momentum                 = (-7.48300613e-22 1.68036262e-21 -2.44848947e-20)
   |Linear momentum|                = 2.45538926e-20
    Linear kinetic energy           = 1.12195626e-16
    model1:
        number of parcels added     = 500000
        mass introduced             = 3.31916729e-20
    Parcel fate (number, mass)      : patch .*
      - escape                      = 497341, 3.30151594e-20
      - stick                       = 0, 0

ExecutionTime = 1280.22 s  ClockTime = 1281 s

Time = 9.930e-05

Evolving kinematicCloud

Solving 3-D cloud kinematicCloud
Cloud: kinematicCloud
    Current number of parcels       = 2646
    Current mass in system          = 1.75650333e-22
    Linear momentum                 = (1.66088251e-21 2.02128937e-21 -2.63444424e-20)
   |Linear momentum|                = 2.6474021e-20
    Linear kinetic energy           = 1.18362982e-16
    model1:
        number of parcels added     = 500000
        mass introduced             = 3.31916729e-20
    Parcel fate (number, mass)      : patch .*
      - escape                      = 497354, 3.30160223e-20
      - stick                       = 0, 0

ExecutionTime = 1280.24 s  ClockTime = 1281 s

Time = 9.940e-05

Evolving kinematicCloud

Solving 3-D cloud kinematicCloud
Cloud: kinematicCloud
    Current number of parcels       = 2632
    Current mass in system          = 1.74720966e-22
    Linear momentum                 = (-1.09094912e-22 2.95597912e-23 -2.62091947e-20)
   |Linear momentum|                = 2.62094384e-20
    Linear kinetic energy           = 1.14092183e-16
    model1:
        number of parcels added     = 500000
        mass introduced             = 3.31916729e-20
    Parcel fate (number, mass)      : patch .*
      - escape                      = 497368, 3.30169517e-20
      - stick                       = 0, 0

ExecutionTime = 1280.27 s  ClockTime = 1281 s

Time = 9.950e-05

Evolving kinematicCloud

Solving 3-D cloud kinematicCloud
Cloud: kinematicCloud
    Current number of parcels       = 2621
    Current mass in system          = 1.73990749e-22
    Linear momentum                 = (9.75209093e-23 -4.91384659e-22 -2.52478927e-20)
   |Linear momentum|                = 2.52528623e-20
    Linear kinetic energy           = 1.04225399e-16
    model1:
        number of parcels added     = 500000
        mass introduced             = 3.31916729e-20
    Parcel fate (number, mass)      : patch .*
      - escape                      = 497379, 3.30176819e-20
      - stick                       = 0, 0

ExecutionTime = 1280.29 s  ClockTime = 1281 s

Time = 9.960e-05

Evolving kinematicCloud

Solving 3-D cloud kinematicCloud
Cloud: kinematicCloud
    Current number of parcels       = 2611
    Current mass in system          = 1.73326916e-22
    Linear momentum                 = (-3.87530056e-23 -1.04588265e-22 -2.64285226e-20)
   |Linear momentum|                = 2.64287579e-20
    Linear kinetic energy           = 1.1842023e-16
    model1:
        number of parcels added     = 500000
        mass introduced             = 3.31916729e-20
    Parcel fate (number, mass)      : patch .*
      - escape                      = 497389, 3.30183458e-20
      - stick                       = 0, 0

ExecutionTime = 1280.31 s  ClockTime = 1281 s

Time = 9.970e-05

Evolving kinematicCloud

Solving 3-D cloud kinematicCloud
Cloud: kinematicCloud
    Current number of parcels       = 2593
    Current mass in system          = 1.72132016e-22
    Linear momentum                 = (-2.03269598e-22 3.55573169e-21 -2.45334673e-20)
   |Linear momentum|                = 2.47906346e-20
    Linear kinetic energy           = 1.06193751e-16
    model1:
        number of parcels added     = 500000
        mass introduced             = 3.31916729e-20
    Parcel fate (number, mass)      : patch .*
      - escape                      = 497407, 3.30195407e-20
      - stick                       = 0, 0

ExecutionTime = 1280.33 s  ClockTime = 1281 s

Time = 9.980e-05

Evolving kinematicCloud

Solving 3-D cloud kinematicCloud
Cloud: kinematicCloud
    Current number of parcels       = 2580
    Current mass in system          = 1.71269032e-22
    Linear momentum                 = (-4.11808704e-22 3.59342894e-21 -2.25748261e-20)
   |Linear momentum|                = 2.28627447e-20
    Linear kinetic energy           = 1.02646717e-16
    model1:
        number of parcels added     = 500000
        mass introduced             = 3.31916729e-20
    Parcel fate (number, mass)      : patch .*
      - escape                      = 497420, 3.30204036e-20
      - stick                       = 0, 0

ExecutionTime = 1280.35 s  ClockTime = 1281 s

Time = 9.990e-05

Evolving kinematicCloud

Solving 3-D cloud kinematicCloud
Cloud: kinematicCloud
    Current number of parcels       = 2569
    Current mass in system          = 1.70538815e-22
    Linear momentum                 = (-2.15871131e-21 7.25087307e-22 -2.29290597e-20)
   |Linear momentum|                = 2.30418655e-20
    Linear kinetic energy           = 9.22286958e-17
    model1:
        number of parcels added     = 500000
        mass introduced             = 3.31916729e-20
    Parcel fate (number, mass)      : patch .*
      - escape                      = 497431, 3.30211339e-20
      - stick                       = 0, 0

ExecutionTime = 1280.37 s  ClockTime = 1281 s

Time = 1.000e-04

Evolving kinematicCloud

Solving 3-D cloud kinematicCloud
Cloud: kinematicCloud
    Current number of parcels       = 2558
    Current mass in system          = 1.69808599e-22
    Linear momentum                 = (-1.72763668e-21 1.32719335e-22 -2.00338324e-20)
   |Linear momentum|                = 2.01086246e-20
    Linear kinetic energy           = 1.02396771e-16
    model1:
        number of parcels added     = 500000
        mass introduced             = 3.31916729e-20
    Parcel fate (number, mass)      : patch .*
      - escape                      = 497442, 3.30218641e-20
      - stick                       = 0, 0

ExecutionTime = 1282.98 s  ClockTime = 1284 s

End

