/*---------------------------------------------------------------------------*\
  =========                 |
  \\      /  F ield         | OpenFOAM: The Open Source CFD Toolbox
   \\    /   O peration     | Website:  https://openfoam.org
    \\  /    A nd           | Version:  7
     \\/     M anipulation  |
\*---------------------------------------------------------------------------*/
Build  : 7-63349425784a
Exec   : laplacianFoam
Date   : Sep 25 2023
Time   : 11:32:09
Host   : "1a16a3bfa666"
PID    : 170
I/O    : uncollated
Case   : /opt/OpenFOAM/OpenFOAM-7/tutorials/basic/laplacianFoam/flange
nProcs : 1
sigFpe : Enabling floating point exception trapping (FOAM_SIGFPE).
fileModificationChecking : Monitoring run-time modified files using timeStampMaster (fileModificationSkew 10)
allowSystemOperations : Allowing user-supplied system call operations

// * * * * * * * * * * * * * * * * * * * * * * * * * * * * * * * * * * * * * //
Create time

Create mesh for time = 0


SIMPLE: No convergence criteria found

Reading field T

Reading transportProperties

Reading diffusivity DT

No finite volume options present

Calculating temperature distribution

Time = 0.005

DICPCG:  Solving for T, Initial residual = 1, Final residual = 1.65094e-07, No Iterations 5
DICPCG:  Solving for T, Initial residual = 0.00446913, Final residual = 2.58563e-07, No Iterations 3
DICPCG:  Solving for T, Initial residual = 0.000148071, Final residual = 1.6611e-07, No Iterations 2
ExecutionTime = 0.04 s  ClockTime = 0 s

Time = 0.01

DICPCG:  Solving for T, Initial residual = 0.203755, Final residual = 3.79207e-07, No Iterations 4
DICPCG:  Solving for T, Initial residual = 0.00184335, Final residual = 1.15759e-07, No Iterations 3
DICPCG:  Solving for T, Initial residual = 5.70567e-05, Final residual = 6.6188e-08, No Iterations 2
ExecutionTime = 0.05 s  ClockTime = 0 s

Time = 0.015

DICPCG:  Solving for T, Initial residual = 0.109922, Final residual = 2.11614e-07, No Iterations 4
DICPCG:  Solving for T, Initial residual = 0.00104612, Final residual = 6.94234e-08, No Iterations 3
DICPCG:  Solving for T, Initial residual = 3.13333e-05, Final residual = 7.19276e-07, No Iterations 1
ExecutionTime = 0.05 s  ClockTime = 0 s

Time = 0.02

DICPCG:  Solving for T, Initial residual = 0.0728088, Final residual = 1.56726e-07, No Iterations 4
DICPCG:  Solving for T, Initial residual = 0.000680395, Final residual = 6.78655e-07, No Iterations 2
DICPCG:  Solving for T, Initial residual = 2.06035e-05, Final residual = 4.78523e-07, No Iterations 1
ExecutionTime = 0.06 s  ClockTime = 0 s

Time = 0.025

DICPCG:  Solving for T, Initial residual = 0.0532992, Final residual = 1.3325e-07, No Iterations 4
DICPCG:  Solving for T, Initial residual = 0.000483509, Final residual = 4.93669e-07, No Iterations 2
DICPCG:  Solving for T, Initial residual = 1.52118e-05, Final residual = 3.54544e-07, No Iterations 1
ExecutionTime = 0.07 s  ClockTime = 0 s

Time = 0.03

DICPCG:  Solving for T, Initial residual = 0.0415323, Final residual = 1.22663e-07, No Iterations 4
DICPCG:  Solving for T, Initial residual = 0.000368122, Final residual = 3.82143e-07, No Iterations 2
DICPCG:  Solving for T, Initial residual = 1.20424e-05, Final residual = 2.8164e-07, No Iterations 1
ExecutionTime = 0.07 s  ClockTime = 0 s

Time = 0.035

DICPCG:  Solving for T, Initial residual = 0.0337492, Final residual = 1.13779e-07, No Iterations 4
DICPCG:  Solving for T, Initial residual = 0.000301919, Final residual = 3.17111e-07, No Iterations 2
DICPCG:  Solving for T, Initial residual = 9.98168e-06, Final residual = 2.33708e-07, No Iterations 1
ExecutionTime = 0.08 s  ClockTime = 0 s

Time = 0.04

DICPCG:  Solving for T, Initial residual = 0.0282432, Final residual = 1.07203e-07, No Iterations 4
DICPCG:  Solving for T, Initial residual = 0.000257948, Final residual = 2.82778e-07, No Iterations 2
DICPCG:  Solving for T, Initial residual = 8.48985e-06, Final residual = 2.00364e-07, No Iterations 1
ExecutionTime = 0.08 s  ClockTime = 0 s

Time = 0.045

DICPCG:  Solving for T, Initial residual = 0.0241622, Final residual = 1.02376e-07, No Iterations 4
DICPCG:  Solving for T, Initial residual = 0.000224392, Final residual = 2.73866e-07, No Iterations 2
DICPCG:  Solving for T, Initial residual = 7.35597e-06, Final residual = 1.75515e-07, No Iterations 1
ExecutionTime = 0.09 s  ClockTime = 0 s

Time = 0.05

DICPCG:  Solving for T, Initial residual = 0.0210217, Final residual = 9.71614e-08, No Iterations 4
DICPCG:  Solving for T, Initial residual = 0.000197888, Final residual = 2.69643e-07, No Iterations 2
DICPCG:  Solving for T, Initial residual = 6.45751e-06, Final residual = 1.55761e-07, No Iterations 1
ExecutionTime = 0.09 s  ClockTime = 0 s

Time = 0.055

DICPCG:  Solving for T, Initial residual = 0.0185348, Final residual = 9.20676e-08, No Iterations 4
DICPCG:  Solving for T, Initial residual = 0.000176351, Final residual = 2.63179e-07, No Iterations 2
DICPCG:  Solving for T, Initial residual = 5.72636e-06, Final residual = 1.39531e-07, No Iterations 1
ExecutionTime = 0.1 s  ClockTime = 0 s

Time = 0.06

DICPCG:  Solving for T, Initial residual = 0.0165191, Final residual = 8.70778e-08, No Iterations 4
DICPCG:  Solving for T, Initial residual = 0.000158093, Final residual = 2.55229e-07, No Iterations 2
DICPCG:  Solving for T, Initial residual = 5.12435e-06, Final residual = 1.25928e-07, No Iterations 1
ExecutionTime = 0.1 s  ClockTime = 0 s

Time = 0.065

DICPCG:  Solving for T, Initial residual = 0.0148535, Final residual = 8.21597e-08, No Iterations 4
DICPCG:  Solving for T, Initial residual = 0.000142326, Final residual = 2.45552e-07, No Iterations 2
DICPCG:  Solving for T, Initial residual = 4.60979e-06, Final residual = 1.14067e-07, No Iterations 1
ExecutionTime = 0.11 s  ClockTime = 0 s

Time = 0.07

DICPCG:  Solving for T, Initial residual = 0.0134552, Final residual = 7.74663e-08, No Iterations 4
DICPCG:  Solving for T, Initial residual = 0.000128604, Final residual = 2.34726e-07, No Iterations 2
DICPCG:  Solving for T, Initial residual = 4.16809e-06, Final residual = 1.03662e-07, No Iterations 1
ExecutionTime = 0.11 s  ClockTime = 0 s

Time = 0.075

DICPCG:  Solving for T, Initial residual = 0.0122655, Final residual = 9.66814e-07, No Iterations 3
DICPCG:  Solving for T, Initial residual = 0.00011667, Final residual = 2.14049e-07, No Iterations 2
DICPCG:  Solving for T, Initial residual = 3.77041e-06, Final residual = 9.41156e-08, No Iterations 1
ExecutionTime = 0.11 s  ClockTime = 0 s

Time = 0.08

DICPCG:  Solving for T, Initial residual = 0.0112412, Final residual = 9.29473e-07, No Iterations 3
DICPCG:  Solving for T, Initial residual = 0.000106303, Final residual = 2.02076e-07, No Iterations 2
DICPCG:  Solving for T, Initial residual = 3.43991e-06, Final residual = 8.60276e-08, No Iterations 1
ExecutionTime = 0.13 s  ClockTime = 0 s

Time = 0.085

DICPCG:  Solving for T, Initial residual = 0.0103499, Final residual = 8.94517e-07, No Iterations 3
DICPCG:  Solving for T, Initial residual = 9.72218e-05, Final residual = 1.90411e-07, No Iterations 2
DICPCG:  Solving for T, Initial residual = 3.14846e-06, Final residual = 7.88975e-08, No Iterations 1
ExecutionTime = 0.13 s  ClockTime = 0 s

Time = 0.09

DICPCG:  Solving for T, Initial residual = 0.00956791, Final residual = 8.6155e-07, No Iterations 3
DICPCG:  Solving for T, Initial residual = 8.92232e-05, Final residual = 1.79049e-07, No Iterations 2
DICPCG:  Solving for T, Initial residual = 2.89305e-06, Final residual = 7.26025e-08, No Iterations 1
ExecutionTime = 0.14 s  ClockTime = 0 s

Time = 0.095

DICPCG:  Solving for T, Initial residual = 0.00887698, Final residual = 8.30534e-07, No Iterations 3
DICPCG:  Solving for T, Initial residual = 8.21603e-05, Final residual = 1.6817e-07, No Iterations 2
DICPCG:  Solving for T, Initial residual = 2.66561e-06, Final residual = 6.69976e-08, No Iterations 1
ExecutionTime = 0.14 s  ClockTime = 0 s

Time = 0.1

DICPCG:  Solving for T, Initial residual = 0.00826319, Final residual = 8.01098e-07, No Iterations 3
DICPCG:  Solving for T, Initial residual = 7.584e-05, Final residual = 1.57848e-07, No Iterations 2
DICPCG:  Solving for T, Initial residual = 2.46298e-06, Final residual = 6.19946e-08, No Iterations 1
ExecutionTime = 0.16 s  ClockTime = 0 s

Time = 0.105

DICPCG:  Solving for T, Initial residual = 0.00771511, Final residual = 7.72963e-07, No Iterations 3
DICPCG:  Solving for T, Initial residual = 7.01679e-05, Final residual = 1.47992e-07, No Iterations 2
DICPCG:  Solving for T, Initial residual = 2.28176e-06, Final residual = 5.7616e-08, No Iterations 1
ExecutionTime = 0.17 s  ClockTime = 0 s

Time = 0.11

DICPCG:  Solving for T, Initial residual = 0.00722332, Final residual = 7.4634e-07, No Iterations 3
DICPCG:  Solving for T, Initial residual = 6.50894e-05, Final residual = 1.38649e-07, No Iterations 2
DICPCG:  Solving for T, Initial residual = 2.12156e-06, Final residual = 5.37017e-08, No Iterations 1
ExecutionTime = 0.17 s  ClockTime = 0 s

Time = 0.115

DICPCG:  Solving for T, Initial residual = 0.00678029, Final residual = 7.20786e-07, No Iterations 3
DICPCG:  Solving for T, Initial residual = 6.05347e-05, Final residual = 1.29852e-07, No Iterations 2
DICPCG:  Solving for T, Initial residual = 1.97853e-06, Final residual = 5.02476e-08, No Iterations 1
ExecutionTime = 0.18 s  ClockTime = 0 s

Time = 0.12

DICPCG:  Solving for T, Initial residual = 0.00637977, Final residual = 6.96215e-07, No Iterations 3
DICPCG:  Solving for T, Initial residual = 5.64481e-05, Final residual = 1.21592e-07, No Iterations 2
DICPCG:  Solving for T, Initial residual = 1.85004e-06, Final residual = 4.71722e-08, No Iterations 1
ExecutionTime = 0.18 s  ClockTime = 0 s

Time = 0.125

DICPCG:  Solving for T, Initial residual = 0.00601657, Final residual = 6.72861e-07, No Iterations 3
DICPCG:  Solving for T, Initial residual = 5.2769e-05, Final residual = 1.1385e-07, No Iterations 2
DICPCG:  Solving for T, Initial residual = 1.73425e-06, Final residual = 4.44763e-08, No Iterations 1
ExecutionTime = 0.19 s  ClockTime = 0 s

Time = 0.13

DICPCG:  Solving for T, Initial residual = 0.00568602, Final residual = 6.51076e-07, No Iterations 3
DICPCG:  Solving for T, Initial residual = 4.94302e-05, Final residual = 9.72069e-07, No Iterations 1
DICPCG:  Solving for T, Initial residual = 1.8941e-06, Final residual = 8.46502e-08, No Iterations 1
ExecutionTime = 0.19 s  ClockTime = 0 s

Time = 0.135

DICPCG:  Solving for T, Initial residual = 0.00538424, Final residual = 6.29306e-07, No Iterations 3
DICPCG:  Solving for T, Initial residual = 4.6407e-05, Final residual = 9.13425e-07, No Iterations 1
DICPCG:  Solving for T, Initial residual = 1.7808e-06, Final residual = 7.75414e-08, No Iterations 1
ExecutionTime = 0.2 s  ClockTime = 0 s

Time = 0.14

DICPCG:  Solving for T, Initial residual = 0.00510804, Final residual = 6.09459e-07, No Iterations 3
DICPCG:  Solving for T, Initial residual = 4.36661e-05, Final residual = 8.60402e-07, No Iterations 1
DICPCG:  Solving for T, Initial residual = 1.67797e-06, Final residual = 7.13968e-08, No Iterations 1
ExecutionTime = 0.2 s  ClockTime = 0 s

Time = 0.145

DICPCG:  Solving for T, Initial residual = 0.00485489, Final residual = 5.90651e-07, No Iterations 3
DICPCG:  Solving for T, Initial residual = 4.11626e-05, Final residual = 8.11915e-07, No Iterations 1
DICPCG:  Solving for T, Initial residual = 1.58344e-06, Final residual = 6.58385e-08, No Iterations 1
ExecutionTime = 0.2 s  ClockTime = 0 s

Time = 0.15

DICPCG:  Solving for T, Initial residual = 0.00462239, Final residual = 5.72696e-07, No Iterations 3
DICPCG:  Solving for T, Initial residual = 3.88615e-05, Final residual = 7.67982e-07, No Iterations 1
DICPCG:  Solving for T, Initial residual = 1.49614e-06, Final residual = 6.07553e-08, No Iterations 1
ExecutionTime = 0.2 s  ClockTime = 0 s

Time = 0.155

DICPCG:  Solving for T, Initial residual = 0.00440832, Final residual = 5.55642e-07, No Iterations 3
DICPCG:  Solving for T, Initial residual = 3.6755e-05, Final residual = 7.27629e-07, No Iterations 1
DICPCG:  Solving for T, Initial residual = 1.41559e-06, Final residual = 5.6111e-08, No Iterations 1
ExecutionTime = 0.21 s  ClockTime = 0 s

Time = 0.16

DICPCG:  Solving for T, Initial residual = 0.0042108, Final residual = 5.39342e-07, No Iterations 3
DICPCG:  Solving for T, Initial residual = 3.48221e-05, Final residual = 6.90403e-07, No Iterations 1
DICPCG:  Solving for T, Initial residual = 1.3413e-06, Final residual = 5.19516e-08, No Iterations 1
ExecutionTime = 0.21 s  ClockTime = 0 s

Time = 0.165

DICPCG:  Solving for T, Initial residual = 0.00402822, Final residual = 5.23711e-07, No Iterations 3
DICPCG:  Solving for T, Initial residual = 3.30626e-05, Final residual = 6.55915e-07, No Iterations 1
DICPCG:  Solving for T, Initial residual = 1.27294e-06, Final residual = 4.821e-08, No Iterations 1
ExecutionTime = 0.22 s  ClockTime = 0 s

Time = 0.17

DICPCG:  Solving for T, Initial residual = 0.00385914, Final residual = 5.08722e-07, No Iterations 3
DICPCG:  Solving for T, Initial residual = 3.1437e-05, Final residual = 6.24047e-07, No Iterations 1
DICPCG:  Solving for T, Initial residual = 1.21e-06, Final residual = 4.48657e-08, No Iterations 1
ExecutionTime = 0.22 s  ClockTime = 0 s

Time = 0.175

DICPCG:  Solving for T, Initial residual = 0.00370228, Final residual = 4.94364e-07, No Iterations 3
DICPCG:  Solving for T, Initial residual = 2.99382e-05, Final residual = 5.94552e-07, No Iterations 1
DICPCG:  Solving for T, Initial residual = 1.15162e-06, Final residual = 4.18733e-08, No Iterations 1
ExecutionTime = 0.23 s  ClockTime = 0 s

Time = 0.18

DICPCG:  Solving for T, Initial residual = 0.00355661, Final residual = 4.80628e-07, No Iterations 3
DICPCG:  Solving for T, Initial residual = 2.85425e-05, Final residual = 5.67273e-07, No Iterations 1
DICPCG:  Solving for T, Initial residual = 1.09765e-06, Final residual = 3.93926e-08, No Iterations 1
ExecutionTime = 0.23 s  ClockTime = 0 s

Time = 0.185

DICPCG:  Solving for T, Initial residual = 0.00342117, Final residual = 4.67521e-07, No Iterations 3
DICPCG:  Solving for T, Initial residual = 2.72413e-05, Final residual = 5.42074e-07, No Iterations 1
DICPCG:  Solving for T, Initial residual = 1.04748e-06, Final residual = 3.73083e-08, No Iterations 1
ExecutionTime = 0.24 s  ClockTime = 0 s

Time = 0.19

DICPCG:  Solving for T, Initial residual = 0.00329512, Final residual = 4.55025e-07, No Iterations 3
DICPCG:  Solving for T, Initial residual = 2.60279e-05, Final residual = 5.18838e-07, No Iterations 1
DICPCG:  Solving for T, Initial residual = 1.00101e-06, Final residual = 3.54834e-08, No Iterations 1
ExecutionTime = 0.24 s  ClockTime = 0 s

Time = 0.195

DICPCG:  Solving for T, Initial residual = 0.00317766, Final residual = 4.43087e-07, No Iterations 3
DICPCG:  Solving for T, Initial residual = 2.49018e-05, Final residual = 4.97364e-07, No Iterations 1
DICPCG:  Solving for T, Initial residual = 9.58169e-07, Final residual = 9.58169e-07, No Iterations 0
ExecutionTime = 0.25 s  ClockTime = 0 s

Time = 0.2

DICPCG:  Solving for T, Initial residual = 0.00306794, Final residual = 4.33242e-07, No Iterations 3
DICPCG:  Solving for T, Initial residual = 2.38596e-05, Final residual = 4.78397e-07, No Iterations 1
DICPCG:  Solving for T, Initial residual = 9.19184e-07, Final residual = 9.19184e-07, No Iterations 0
ExecutionTime = 0.29 s  ClockTime = 0 s

Time = 0.205

DICPCG:  Solving for T, Initial residual = 0.00296529, Final residual = 4.22479e-07, No Iterations 3
DICPCG:  Solving for T, Initial residual = 2.28804e-05, Final residual = 4.59794e-07, No Iterations 1
DICPCG:  Solving for T, Initial residual = 8.82284e-07, Final residual = 8.82284e-07, No Iterations 0
ExecutionTime = 0.29 s  ClockTime = 0 s

Time = 0.21

DICPCG:  Solving for T, Initial residual = 0.00286906, Final residual = 4.11895e-07, No Iterations 3
DICPCG:  Solving for T, Initial residual = 2.19611e-05, Final residual = 4.42353e-07, No Iterations 1
DICPCG:  Solving for T, Initial residual = 8.47847e-07, Final residual = 8.47847e-07, No Iterations 0
ExecutionTime = 0.3 s  ClockTime = 0 s

Time = 0.215

DICPCG:  Solving for T, Initial residual = 0.00277886, Final residual = 4.01747e-07, No Iterations 3
DICPCG:  Solving for T, Initial residual = 2.10987e-05, Final residual = 4.25987e-07, No Iterations 1
DICPCG:  Solving for T, Initial residual = 8.15589e-07, Final residual = 8.15589e-07, No Iterations 0
ExecutionTime = 0.3 s  ClockTime = 0 s

Time = 0.22

DICPCG:  Solving for T, Initial residual = 0.0026942, Final residual = 3.92046e-07, No Iterations 3
DICPCG:  Solving for T, Initial residual = 2.02914e-05, Final residual = 4.10672e-07, No Iterations 1
DICPCG:  Solving for T, Initial residual = 7.8566e-07, Final residual = 7.8566e-07, No Iterations 0
ExecutionTime = 0.31 s  ClockTime = 0 s

Time = 0.225

DICPCG:  Solving for T, Initial residual = 0.00261471, Final residual = 3.82787e-07, No Iterations 3
DICPCG:  Solving for T, Initial residual = 1.95366e-05, Final residual = 3.96378e-07, No Iterations 1
DICPCG:  Solving for T, Initial residual = 7.57932e-07, Final residual = 7.57932e-07, No Iterations 0
ExecutionTime = 0.31 s  ClockTime = 0 s

Time = 0.23

DICPCG:  Solving for T, Initial residual = 0.00253998, Final residual = 3.73911e-07, No Iterations 3
DICPCG:  Solving for T, Initial residual = 1.88294e-05, Final residual = 3.82883e-07, No Iterations 1
DICPCG:  Solving for T, Initial residual = 7.32074e-07, Final residual = 7.32074e-07, No Iterations 0
ExecutionTime = 0.32 s  ClockTime = 0 s

Time = 0.235

DICPCG:  Solving for T, Initial residual = 0.00246967, Final residual = 3.65413e-07, No Iterations 3
DICPCG:  Solving for T, Initial residual = 1.81642e-05, Final residual = 3.70198e-07, No Iterations 1
DICPCG:  Solving for T, Initial residual = 7.08066e-07, Final residual = 7.08066e-07, No Iterations 0
ExecutionTime = 0.32 s  ClockTime = 0 s

Time = 0.24

DICPCG:  Solving for T, Initial residual = 0.00240344, Final residual = 3.57272e-07, No Iterations 3
DICPCG:  Solving for T, Initial residual = 1.75393e-05, Final residual = 3.58336e-07, No Iterations 1
DICPCG:  Solving for T, Initial residual = 6.8549e-07, Final residual = 6.8549e-07, No Iterations 0
ExecutionTime = 0.32 s  ClockTime = 0 s

Time = 0.245

DICPCG:  Solving for T, Initial residual = 0.00234098, Final residual = 3.49477e-07, No Iterations 3
DICPCG:  Solving for T, Initial residual = 1.69504e-05, Final residual = 3.47114e-07, No Iterations 1
DICPCG:  Solving for T, Initial residual = 6.64313e-07, Final residual = 6.64313e-07, No Iterations 0
ExecutionTime = 0.33 s  ClockTime = 0 s

Time = 0.25

DICPCG:  Solving for T, Initial residual = 0.00228201, Final residual = 3.41998e-07, No Iterations 3
DICPCG:  Solving for T, Initial residual = 1.63939e-05, Final residual = 3.36669e-07, No Iterations 1
DICPCG:  Solving for T, Initial residual = 6.4446e-07, Final residual = 6.4446e-07, No Iterations 0
ExecutionTime = 0.33 s  ClockTime = 0 s

Time = 0.255

DICPCG:  Solving for T, Initial residual = 0.00222628, Final residual = 3.3482e-07, No Iterations 3
DICPCG:  Solving for T, Initial residual = 1.58681e-05, Final residual = 3.26805e-07, No Iterations 1
DICPCG:  Solving for T, Initial residual = 6.25888e-07, Final residual = 6.25888e-07, No Iterations 0
ExecutionTime = 0.33 s  ClockTime = 0 s

Time = 0.26

DICPCG:  Solving for T, Initial residual = 0.00217352, Final residual = 3.2794e-07, No Iterations 3
DICPCG:  Solving for T, Initial residual = 1.53717e-05, Final residual = 3.1743e-07, No Iterations 1
DICPCG:  Solving for T, Initial residual = 6.08419e-07, Final residual = 6.08419e-07, No Iterations 0
ExecutionTime = 0.33 s  ClockTime = 0 s

Time = 0.265

DICPCG:  Solving for T, Initial residual = 0.00212352, Final residual = 3.21343e-07, No Iterations 3
DICPCG:  Solving for T, Initial residual = 1.4902e-05, Final residual = 3.08548e-07, No Iterations 1
DICPCG:  Solving for T, Initial residual = 5.91835e-07, Final residual = 5.91835e-07, No Iterations 0
ExecutionTime = 0.34 s  ClockTime = 0 s

Time = 0.27

DICPCG:  Solving for T, Initial residual = 0.0020761, Final residual = 3.15027e-07, No Iterations 3
DICPCG:  Solving for T, Initial residual = 1.4457e-05, Final residual = 3.0017e-07, No Iterations 1
DICPCG:  Solving for T, Initial residual = 5.76033e-07, Final residual = 5.76033e-07, No Iterations 0
ExecutionTime = 0.36 s  ClockTime = 0 s

Time = 0.275

DICPCG:  Solving for T, Initial residual = 0.00203107, Final residual = 3.08958e-07, No Iterations 3
DICPCG:  Solving for T, Initial residual = 1.4038e-05, Final residual = 2.92244e-07, No Iterations 1
DICPCG:  Solving for T, Initial residual = 5.60977e-07, Final residual = 5.60977e-07, No Iterations 0
ExecutionTime = 0.36 s  ClockTime = 0 s

Time = 0.28

DICPCG:  Solving for T, Initial residual = 0.00198827, Final residual = 3.03121e-07, No Iterations 3
DICPCG:  Solving for T, Initial residual = 1.36406e-05, Final residual = 2.84795e-07, No Iterations 1
DICPCG:  Solving for T, Initial residual = 5.46687e-07, Final residual = 5.46687e-07, No Iterations 0
ExecutionTime = 0.37 s  ClockTime = 0 s

Time = 0.285

DICPCG:  Solving for T, Initial residual = 0.00194754, Final residual = 2.97507e-07, No Iterations 3
DICPCG:  Solving for T, Initial residual = 1.32631e-05, Final residual = 2.77736e-07, No Iterations 1
DICPCG:  Solving for T, Initial residual = 5.33099e-07, Final residual = 5.33099e-07, No Iterations 0
ExecutionTime = 0.37 s  ClockTime = 0 s

Time = 0.29

DICPCG:  Solving for T, Initial residual = 0.00190875, Final residual = 2.92109e-07, No Iterations 3
DICPCG:  Solving for T, Initial residual = 1.29033e-05, Final residual = 2.71084e-07, No Iterations 1
DICPCG:  Solving for T, Initial residual = 5.20121e-07, Final residual = 5.20121e-07, No Iterations 0
ExecutionTime = 0.37 s  ClockTime = 0 s

Time = 0.295

DICPCG:  Solving for T, Initial residual = 0.00187178, Final residual = 2.86911e-07, No Iterations 3
DICPCG:  Solving for T, Initial residual = 1.25616e-05, Final residual = 2.648e-07, No Iterations 1
DICPCG:  Solving for T, Initial residual = 5.07911e-07, Final residual = 5.07911e-07, No Iterations 0
ExecutionTime = 0.38 s  ClockTime = 0 s

Time = 0.3

DICPCG:  Solving for T, Initial residual = 0.00183654, Final residual = 2.81911e-07, No Iterations 3
DICPCG:  Solving for T, Initial residual = 1.2237e-05, Final residual = 2.58829e-07, No Iterations 1
DICPCG:  Solving for T, Initial residual = 4.9626e-07, Final residual = 4.9626e-07, No Iterations 0
ExecutionTime = 0.4 s  ClockTime = 0 s

Time = 0.305

DICPCG:  Solving for T, Initial residual = 0.0018029, Final residual = 2.77096e-07, No Iterations 3
DICPCG:  Solving for T, Initial residual = 1.19303e-05, Final residual = 2.53105e-07, No Iterations 1
DICPCG:  Solving for T, Initial residual = 4.85072e-07, Final residual = 4.85072e-07, No Iterations 0
ExecutionTime = 0.4 s  ClockTime = 0 s

Time = 0.31

DICPCG:  Solving for T, Initial residual = 0.00177074, Final residual = 2.72454e-07, No Iterations 3
DICPCG:  Solving for T, Initial residual = 1.16396e-05, Final residual = 2.47594e-07, No Iterations 1
DICPCG:  Solving for T, Initial residual = 4.74329e-07, Final residual = 4.74329e-07, No Iterations 0
ExecutionTime = 0.41 s  ClockTime = 0 s

Time = 0.315

DICPCG:  Solving for T, Initial residual = 0.00173998, Final residual = 2.6798e-07, No Iterations 3
DICPCG:  Solving for T, Initial residual = 1.13605e-05, Final residual = 2.42362e-07, No Iterations 1
DICPCG:  Solving for T, Initial residual = 4.64094e-07, Final residual = 4.64094e-07, No Iterations 0
ExecutionTime = 0.41 s  ClockTime = 0 s

Time = 0.32

DICPCG:  Solving for T, Initial residual = 0.00171053, Final residual = 2.63665e-07, No Iterations 3
DICPCG:  Solving for T, Initial residual = 1.1093e-05, Final residual = 2.37432e-07, No Iterations 1
DICPCG:  Solving for T, Initial residual = 4.54345e-07, Final residual = 4.54345e-07, No Iterations 0
ExecutionTime = 0.42 s  ClockTime = 0 s

Time = 0.325

DICPCG:  Solving for T, Initial residual = 0.00168231, Final residual = 2.59506e-07, No Iterations 3
DICPCG:  Solving for T, Initial residual = 1.08367e-05, Final residual = 2.32714e-07, No Iterations 1
DICPCG:  Solving for T, Initial residual = 4.45096e-07, Final residual = 4.45096e-07, No Iterations 0
ExecutionTime = 0.42 s  ClockTime = 0 s

Time = 0.33

DICPCG:  Solving for T, Initial residual = 0.00165527, Final residual = 2.55496e-07, No Iterations 3
DICPCG:  Solving for T, Initial residual = 1.05909e-05, Final residual = 2.2818e-07, No Iterations 1
DICPCG:  Solving for T, Initial residual = 4.36201e-07, Final residual = 4.36201e-07, No Iterations 0
ExecutionTime = 0.43 s  ClockTime = 0 s

Time = 0.335

DICPCG:  Solving for T, Initial residual = 0.00162932, Final residual = 2.51633e-07, No Iterations 3
DICPCG:  Solving for T, Initial residual = 1.03567e-05, Final residual = 2.2383e-07, No Iterations 1
DICPCG:  Solving for T, Initial residual = 4.27635e-07, Final residual = 4.27635e-07, No Iterations 0
ExecutionTime = 0.43 s  ClockTime = 0 s

Time = 0.34

DICPCG:  Solving for T, Initial residual = 0.0016044, Final residual = 2.47909e-07, No Iterations 3
DICPCG:  Solving for T, Initial residual = 1.01322e-05, Final residual = 2.19635e-07, No Iterations 1
DICPCG:  Solving for T, Initial residual = 4.19512e-07, Final residual = 4.19512e-07, No Iterations 0
ExecutionTime = 0.43 s  ClockTime = 0 s

Time = 0.345

DICPCG:  Solving for T, Initial residual = 0.00158045, Final residual = 2.44317e-07, No Iterations 3
DICPCG:  Solving for T, Initial residual = 9.91645e-06, Final residual = 2.15595e-07, No Iterations 1
DICPCG:  Solving for T, Initial residual = 4.11712e-07, Final residual = 4.11712e-07, No Iterations 0
ExecutionTime = 0.44 s  ClockTime = 0 s

Time = 0.35

DICPCG:  Solving for T, Initial residual = 0.0015574, Final residual = 2.40845e-07, No Iterations 3
DICPCG:  Solving for T, Initial residual = 9.70856e-06, Final residual = 2.1182e-07, No Iterations 1
DICPCG:  Solving for T, Initial residual = 4.04164e-07, Final residual = 4.04164e-07, No Iterations 0
ExecutionTime = 0.44 s  ClockTime = 0 s

Time = 0.355

DICPCG:  Solving for T, Initial residual = 0.00153521, Final residual = 2.37491e-07, No Iterations 3
DICPCG:  Solving for T, Initial residual = 9.51056e-06, Final residual = 2.08228e-07, No Iterations 1
DICPCG:  Solving for T, Initial residual = 3.96867e-07, Final residual = 3.96867e-07, No Iterations 0
ExecutionTime = 0.45 s  ClockTime = 0 s

Time = 0.36

DICPCG:  Solving for T, Initial residual = 0.00151384, Final residual = 2.34248e-07, No Iterations 3
DICPCG:  Solving for T, Initial residual = 9.32102e-06, Final residual = 2.04761e-07, No Iterations 1
DICPCG:  Solving for T, Initial residual = 3.89845e-07, Final residual = 3.89845e-07, No Iterations 0
ExecutionTime = 0.45 s  ClockTime = 0 s

Time = 0.365

DICPCG:  Solving for T, Initial residual = 0.00149323, Final residual = 2.31113e-07, No Iterations 3
DICPCG:  Solving for T, Initial residual = 9.13886e-06, Final residual = 2.01406e-07, No Iterations 1
DICPCG:  Solving for T, Initial residual = 3.83016e-07, Final residual = 3.83016e-07, No Iterations 0
ExecutionTime = 0.45 s  ClockTime = 0 s

Time = 0.37

DICPCG:  Solving for T, Initial residual = 0.00147333, Final residual = 2.28081e-07, No Iterations 3
DICPCG:  Solving for T, Initial residual = 8.96291e-06, Final residual = 1.98161e-07, No Iterations 1
DICPCG:  Solving for T, Initial residual = 3.76383e-07, Final residual = 3.76383e-07, No Iterations 0
ExecutionTime = 0.45 s  ClockTime = 0 s

Time = 0.375

DICPCG:  Solving for T, Initial residual = 0.00145411, Final residual = 2.25147e-07, No Iterations 3
DICPCG:  Solving for T, Initial residual = 8.79319e-06, Final residual = 1.95028e-07, No Iterations 1
DICPCG:  Solving for T, Initial residual = 3.69945e-07, Final residual = 3.69945e-07, No Iterations 0
ExecutionTime = 0.47 s  ClockTime = 0 s

Time = 0.38

DICPCG:  Solving for T, Initial residual = 0.00143553, Final residual = 2.22303e-07, No Iterations 3
DICPCG:  Solving for T, Initial residual = 8.6294e-06, Final residual = 1.91978e-07, No Iterations 1
DICPCG:  Solving for T, Initial residual = 3.63709e-07, Final residual = 3.63709e-07, No Iterations 0
ExecutionTime = 0.47 s  ClockTime = 0 s

Time = 0.385

DICPCG:  Solving for T, Initial residual = 0.00141755, Final residual = 2.19547e-07, No Iterations 3
DICPCG:  Solving for T, Initial residual = 8.47417e-06, Final residual = 1.89017e-07, No Iterations 1
DICPCG:  Solving for T, Initial residual = 3.57738e-07, Final residual = 3.57738e-07, No Iterations 0
ExecutionTime = 0.48 s  ClockTime = 0 s

Time = 0.39

DICPCG:  Solving for T, Initial residual = 0.00140015, Final residual = 2.16874e-07, No Iterations 3
DICPCG:  Solving for T, Initial residual = 8.32524e-06, Final residual = 1.86144e-07, No Iterations 1
DICPCG:  Solving for T, Initial residual = 3.51945e-07, Final residual = 3.51945e-07, No Iterations 0
ExecutionTime = 0.49 s  ClockTime = 0 s

Time = 0.395

DICPCG:  Solving for T, Initial residual = 0.00138329, Final residual = 2.14284e-07, No Iterations 3
DICPCG:  Solving for T, Initial residual = 8.18099e-06, Final residual = 1.83359e-07, No Iterations 1
DICPCG:  Solving for T, Initial residual = 3.46353e-07, Final residual = 3.46353e-07, No Iterations 0
ExecutionTime = 0.5 s  ClockTime = 0 s

Time = 0.4

DICPCG:  Solving for T, Initial residual = 0.00136696, Final residual = 2.1177e-07, No Iterations 3
DICPCG:  Solving for T, Initial residual = 8.04222e-06, Final residual = 1.80639e-07, No Iterations 1
DICPCG:  Solving for T, Initial residual = 3.40928e-07, Final residual = 3.40928e-07, No Iterations 0
ExecutionTime = 0.53 s  ClockTime = 0 s

Time = 0.405

DICPCG:  Solving for T, Initial residual = 0.00135111, Final residual = 2.09328e-07, No Iterations 3
DICPCG:  Solving for T, Initial residual = 7.90832e-06, Final residual = 1.77994e-07, No Iterations 1
DICPCG:  Solving for T, Initial residual = 3.35668e-07, Final residual = 3.35668e-07, No Iterations 0
ExecutionTime = 0.53 s  ClockTime = 0 s

Time = 0.41

DICPCG:  Solving for T, Initial residual = 0.00133572, Final residual = 2.06952e-07, No Iterations 3
DICPCG:  Solving for T, Initial residual = 7.77866e-06, Final residual = 1.75424e-07, No Iterations 1
DICPCG:  Solving for T, Initial residual = 3.30547e-07, Final residual = 3.30547e-07, No Iterations 0
ExecutionTime = 0.54 s  ClockTime = 0 s

Time = 0.415

DICPCG:  Solving for T, Initial residual = 0.00132077, Final residual = 2.0464e-07, No Iterations 3
DICPCG:  Solving for T, Initial residual = 7.65371e-06, Final residual = 1.72924e-07, No Iterations 1
DICPCG:  Solving for T, Initial residual = 3.25557e-07, Final residual = 3.25557e-07, No Iterations 0
ExecutionTime = 0.54 s  ClockTime = 0 s

Time = 0.42

DICPCG:  Solving for T, Initial residual = 0.00130623, Final residual = 2.02387e-07, No Iterations 3
DICPCG:  Solving for T, Initial residual = 7.53315e-06, Final residual = 1.70504e-07, No Iterations 1
DICPCG:  Solving for T, Initial residual = 3.20698e-07, Final residual = 3.20698e-07, No Iterations 0
ExecutionTime = 0.55 s  ClockTime = 0 s

Time = 0.425

DICPCG:  Solving for T, Initial residual = 0.00129208, Final residual = 2.0019e-07, No Iterations 3
DICPCG:  Solving for T, Initial residual = 7.416e-06, Final residual = 1.68152e-07, No Iterations 1
DICPCG:  Solving for T, Initial residual = 3.15954e-07, Final residual = 3.15954e-07, No Iterations 0
ExecutionTime = 0.55 s  ClockTime = 0 s

Time = 0.43

DICPCG:  Solving for T, Initial residual = 0.00127831, Final residual = 1.98048e-07, No Iterations 3
DICPCG:  Solving for T, Initial residual = 7.30232e-06, Final residual = 1.65857e-07, No Iterations 1
DICPCG:  Solving for T, Initial residual = 3.11332e-07, Final residual = 3.11332e-07, No Iterations 0
ExecutionTime = 0.56 s  ClockTime = 0 s

Time = 0.435

DICPCG:  Solving for T, Initial residual = 0.00126489, Final residual = 1.95956e-07, No Iterations 3
DICPCG:  Solving for T, Initial residual = 7.19198e-06, Final residual = 1.63627e-07, No Iterations 1
DICPCG:  Solving for T, Initial residual = 3.06839e-07, Final residual = 3.06839e-07, No Iterations 0
ExecutionTime = 0.56 s  ClockTime = 0 s

Time = 0.44

DICPCG:  Solving for T, Initial residual = 0.0012518, Final residual = 1.93912e-07, No Iterations 3
DICPCG:  Solving for T, Initial residual = 7.08593e-06, Final residual = 1.61446e-07, No Iterations 1
DICPCG:  Solving for T, Initial residual = 3.02483e-07, Final residual = 3.02483e-07, No Iterations 0
ExecutionTime = 0.57 s  ClockTime = 0 s

Time = 0.445

DICPCG:  Solving for T, Initial residual = 0.00123903, Final residual = 1.91919e-07, No Iterations 3
DICPCG:  Solving for T, Initial residual = 6.9826e-06, Final residual = 1.59326e-07, No Iterations 1
DICPCG:  Solving for T, Initial residual = 2.98264e-07, Final residual = 2.98264e-07, No Iterations 0
ExecutionTime = 0.57 s  ClockTime = 0 s

Time = 0.45

DICPCG:  Solving for T, Initial residual = 0.00122656, Final residual = 1.89971e-07, No Iterations 3
DICPCG:  Solving for T, Initial residual = 6.88167e-06, Final residual = 1.57273e-07, No Iterations 1
DICPCG:  Solving for T, Initial residual = 2.94178e-07, Final residual = 2.94178e-07, No Iterations 0
ExecutionTime = 0.58 s  ClockTime = 0 s

Time = 0.455

DICPCG:  Solving for T, Initial residual = 0.00121438, Final residual = 1.88067e-07, No Iterations 3
DICPCG:  Solving for T, Initial residual = 6.78346e-06, Final residual = 1.55287e-07, No Iterations 1
DICPCG:  Solving for T, Initial residual = 2.90198e-07, Final residual = 2.90198e-07, No Iterations 0
ExecutionTime = 0.58 s  ClockTime = 0 s

Time = 0.46

DICPCG:  Solving for T, Initial residual = 0.00120249, Final residual = 1.86203e-07, No Iterations 3
DICPCG:  Solving for T, Initial residual = 6.68782e-06, Final residual = 1.5336e-07, No Iterations 1
DICPCG:  Solving for T, Initial residual = 2.8633e-07, Final residual = 2.8633e-07, No Iterations 0
ExecutionTime = 0.59 s  ClockTime = 0 s

Time = 0.465

DICPCG:  Solving for T, Initial residual = 0.00119088, Final residual = 1.8438e-07, No Iterations 3
DICPCG:  Solving for T, Initial residual = 6.59452e-06, Final residual = 1.5147e-07, No Iterations 1
DICPCG:  Solving for T, Initial residual = 2.82608e-07, Final residual = 2.82608e-07, No Iterations 0
ExecutionTime = 0.59 s  ClockTime = 0 s

Time = 0.47

DICPCG:  Solving for T, Initial residual = 0.00117952, Final residual = 1.82594e-07, No Iterations 3
DICPCG:  Solving for T, Initial residual = 6.50342e-06, Final residual = 1.4962e-07, No Iterations 1
DICPCG:  Solving for T, Initial residual = 2.78967e-07, Final residual = 2.78967e-07, No Iterations 0
ExecutionTime = 0.6 s  ClockTime = 0 s

Time = 0.475

DICPCG:  Solving for T, Initial residual = 0.00116841, Final residual = 1.80844e-07, No Iterations 3
DICPCG:  Solving for T, Initial residual = 6.41472e-06, Final residual = 1.47813e-07, No Iterations 1
DICPCG:  Solving for T, Initial residual = 2.7541e-07, Final residual = 2.7541e-07, No Iterations 0
ExecutionTime = 0.6 s  ClockTime = 0 s

Time = 0.48

DICPCG:  Solving for T, Initial residual = 0.00115755, Final residual = 1.79132e-07, No Iterations 3
DICPCG:  Solving for T, Initial residual = 6.3282e-06, Final residual = 1.46046e-07, No Iterations 1
DICPCG:  Solving for T, Initial residual = 2.7193e-07, Final residual = 2.7193e-07, No Iterations 0
ExecutionTime = 0.61 s  ClockTime = 0 s

Time = 0.485

DICPCG:  Solving for T, Initial residual = 0.00114691, Final residual = 1.77452e-07, No Iterations 3
DICPCG:  Solving for T, Initial residual = 6.24362e-06, Final residual = 1.44328e-07, No Iterations 1
DICPCG:  Solving for T, Initial residual = 2.6852e-07, Final residual = 2.6852e-07, No Iterations 0
ExecutionTime = 0.61 s  ClockTime = 0 s

Time = 0.49

DICPCG:  Solving for T, Initial residual = 0.00113648, Final residual = 1.75802e-07, No Iterations 3
DICPCG:  Solving for T, Initial residual = 6.16127e-06, Final residual = 1.4264e-07, No Iterations 1
DICPCG:  Solving for T, Initial residual = 2.65175e-07, Final residual = 2.65175e-07, No Iterations 0
ExecutionTime = 0.61 s  ClockTime = 0 s

Time = 0.495

DICPCG:  Solving for T, Initial residual = 0.00112627, Final residual = 1.74182e-07, No Iterations 3
DICPCG:  Solving for T, Initial residual = 6.08083e-06, Final residual = 1.40989e-07, No Iterations 1
DICPCG:  Solving for T, Initial residual = 2.61902e-07, Final residual = 2.61902e-07, No Iterations 0
ExecutionTime = 0.62 s  ClockTime = 0 s

Time = 0.5

DICPCG:  Solving for T, Initial residual = 0.00111627, Final residual = 1.72592e-07, No Iterations 3
DICPCG:  Solving for T, Initial residual = 6.00221e-06, Final residual = 1.39364e-07, No Iterations 1
DICPCG:  Solving for T, Initial residual = 2.58693e-07, Final residual = 2.58693e-07, No Iterations 0
ExecutionTime = 0.63 s  ClockTime = 0 s

Time = 0.505

DICPCG:  Solving for T, Initial residual = 0.00110646, Final residual = 1.71031e-07, No Iterations 3
DICPCG:  Solving for T, Initial residual = 5.92542e-06, Final residual = 1.37768e-07, No Iterations 1
DICPCG:  Solving for T, Initial residual = 2.55566e-07, Final residual = 2.55566e-07, No Iterations 0
ExecutionTime = 0.64 s  ClockTime = 0 s

Time = 0.51

DICPCG:  Solving for T, Initial residual = 0.00109685, Final residual = 1.69497e-07, No Iterations 3
DICPCG:  Solving for T, Initial residual = 5.85044e-06, Final residual = 1.36212e-07, No Iterations 1
DICPCG:  Solving for T, Initial residual = 2.52517e-07, Final residual = 2.52517e-07, No Iterations 0
ExecutionTime = 0.64 s  ClockTime = 0 s

Time = 0.515

DICPCG:  Solving for T, Initial residual = 0.00108743, Final residual = 1.67991e-07, No Iterations 3
DICPCG:  Solving for T, Initial residual = 5.77736e-06, Final residual = 1.34682e-07, No Iterations 1
DICPCG:  Solving for T, Initial residual = 2.49543e-07, Final residual = 2.49543e-07, No Iterations 0
ExecutionTime = 0.64 s  ClockTime = 0 s

Time = 0.52

DICPCG:  Solving for T, Initial residual = 0.00107817, Final residual = 1.6651e-07, No Iterations 3
DICPCG:  Solving for T, Initial residual = 5.70584e-06, Final residual = 1.3318e-07, No Iterations 1
DICPCG:  Solving for T, Initial residual = 2.46627e-07, Final residual = 2.46627e-07, No Iterations 0
ExecutionTime = 0.65 s  ClockTime = 0 s

Time = 0.525

DICPCG:  Solving for T, Initial residual = 0.00106909, Final residual = 1.65054e-07, No Iterations 3
DICPCG:  Solving for T, Initial residual = 5.63593e-06, Final residual = 1.31701e-07, No Iterations 1
DICPCG:  Solving for T, Initial residual = 2.43763e-07, Final residual = 2.43763e-07, No Iterations 0
ExecutionTime = 0.65 s  ClockTime = 0 s

Time = 0.53

DICPCG:  Solving for T, Initial residual = 0.00106017, Final residual = 1.63622e-07, No Iterations 3
DICPCG:  Solving for T, Initial residual = 5.5675e-06, Final residual = 1.30243e-07, No Iterations 1
DICPCG:  Solving for T, Initial residual = 2.40954e-07, Final residual = 2.40954e-07, No Iterations 0
ExecutionTime = 0.65 s  ClockTime = 0 s

Time = 0.535

DICPCG:  Solving for T, Initial residual = 0.00105141, Final residual = 1.62214e-07, No Iterations 3
DICPCG:  Solving for T, Initial residual = 5.5005e-06, Final residual = 1.28806e-07, No Iterations 1
DICPCG:  Solving for T, Initial residual = 2.38202e-07, Final residual = 2.38202e-07, No Iterations 0
ExecutionTime = 0.65 s  ClockTime = 0 s

Time = 0.54

DICPCG:  Solving for T, Initial residual = 0.00104279, Final residual = 1.60826e-07, No Iterations 3
DICPCG:  Solving for T, Initial residual = 5.4349e-06, Final residual = 1.27396e-07, No Iterations 1
DICPCG:  Solving for T, Initial residual = 2.35511e-07, Final residual = 2.35511e-07, No Iterations 0
ExecutionTime = 0.66 s  ClockTime = 0 s

Time = 0.545

DICPCG:  Solving for T, Initial residual = 0.00103432, Final residual = 1.59459e-07, No Iterations 3
DICPCG:  Solving for T, Initial residual = 5.3706e-06, Final residual = 1.26015e-07, No Iterations 1
DICPCG:  Solving for T, Initial residual = 2.3288e-07, Final residual = 2.3288e-07, No Iterations 0
ExecutionTime = 0.66 s  ClockTime = 0 s

Time = 0.55

DICPCG:  Solving for T, Initial residual = 0.00102598, Final residual = 1.58112e-07, No Iterations 3
DICPCG:  Solving for T, Initial residual = 5.30772e-06, Final residual = 1.24658e-07, No Iterations 1
DICPCG:  Solving for T, Initial residual = 2.30304e-07, Final residual = 2.30304e-07, No Iterations 0
ExecutionTime = 0.66 s  ClockTime = 0 s

Time = 0.555

DICPCG:  Solving for T, Initial residual = 0.00101778, Final residual = 1.56785e-07, No Iterations 3
DICPCG:  Solving for T, Initial residual = 5.24599e-06, Final residual = 1.23321e-07, No Iterations 1
DICPCG:  Solving for T, Initial residual = 2.27783e-07, Final residual = 2.27783e-07, No Iterations 0
ExecutionTime = 0.67 s  ClockTime = 1 s

Time = 0.56

DICPCG:  Solving for T, Initial residual = 0.00100971, Final residual = 1.55478e-07, No Iterations 3
DICPCG:  Solving for T, Initial residual = 5.18546e-06, Final residual = 1.2201e-07, No Iterations 1
DICPCG:  Solving for T, Initial residual = 2.2531e-07, Final residual = 2.2531e-07, No Iterations 0
ExecutionTime = 0.67 s  ClockTime = 1 s

Time = 0.565

DICPCG:  Solving for T, Initial residual = 0.00100177, Final residual = 1.5419e-07, No Iterations 3
DICPCG:  Solving for T, Initial residual = 5.12626e-06, Final residual = 1.20718e-07, No Iterations 1
DICPCG:  Solving for T, Initial residual = 2.22886e-07, Final residual = 2.22886e-07, No Iterations 0
ExecutionTime = 0.67 s  ClockTime = 1 s

Time = 0.57

DICPCG:  Solving for T, Initial residual = 0.000993959, Final residual = 1.52919e-07, No Iterations 3
DICPCG:  Solving for T, Initial residual = 5.06837e-06, Final residual = 1.19444e-07, No Iterations 1
DICPCG:  Solving for T, Initial residual = 2.20508e-07, Final residual = 2.20508e-07, No Iterations 0
ExecutionTime = 0.68 s  ClockTime = 1 s

Time = 0.575

DICPCG:  Solving for T, Initial residual = 0.000986264, Final residual = 1.51666e-07, No Iterations 3
DICPCG:  Solving for T, Initial residual = 5.01155e-06, Final residual = 1.18189e-07, No Iterations 1
DICPCG:  Solving for T, Initial residual = 2.18168e-07, Final residual = 2.18168e-07, No Iterations 0
ExecutionTime = 0.68 s  ClockTime = 1 s

Time = 0.58

DICPCG:  Solving for T, Initial residual = 0.000978682, Final residual = 1.50428e-07, No Iterations 3
DICPCG:  Solving for T, Initial residual = 4.95583e-06, Final residual = 1.16952e-07, No Iterations 1
DICPCG:  Solving for T, Initial residual = 2.15874e-07, Final residual = 2.15874e-07, No Iterations 0
ExecutionTime = 0.68 s  ClockTime = 1 s

Time = 0.585

DICPCG:  Solving for T, Initial residual = 0.000971214, Final residual = 1.49208e-07, No Iterations 3
DICPCG:  Solving for T, Initial residual = 4.90106e-06, Final residual = 1.15741e-07, No Iterations 1
DICPCG:  Solving for T, Initial residual = 2.13624e-07, Final residual = 2.13624e-07, No Iterations 0
ExecutionTime = 0.69 s  ClockTime = 1 s

Time = 0.59

DICPCG:  Solving for T, Initial residual = 0.000963856, Final residual = 1.48003e-07, No Iterations 3
DICPCG:  Solving for T, Initial residual = 4.84718e-06, Final residual = 1.14555e-07, No Iterations 1
DICPCG:  Solving for T, Initial residual = 2.11405e-07, Final residual = 2.11405e-07, No Iterations 0
ExecutionTime = 0.69 s  ClockTime = 1 s

Time = 0.595

DICPCG:  Solving for T, Initial residual = 0.000956605, Final residual = 1.46816e-07, No Iterations 3
DICPCG:  Solving for T, Initial residual = 4.79431e-06, Final residual = 1.13398e-07, No Iterations 1
DICPCG:  Solving for T, Initial residual = 2.09218e-07, Final residual = 2.09218e-07, No Iterations 0
ExecutionTime = 0.69 s  ClockTime = 1 s

Time = 0.6

DICPCG:  Solving for T, Initial residual = 0.000949453, Final residual = 1.45644e-07, No Iterations 3
DICPCG:  Solving for T, Initial residual = 4.74224e-06, Final residual = 1.12258e-07, No Iterations 1
DICPCG:  Solving for T, Initial residual = 2.07059e-07, Final residual = 2.07059e-07, No Iterations 0
ExecutionTime = 0.71 s  ClockTime = 1 s

Time = 0.605

DICPCG:  Solving for T, Initial residual = 0.000942393, Final residual = 1.44486e-07, No Iterations 3
DICPCG:  Solving for T, Initial residual = 4.69118e-06, Final residual = 1.11132e-07, No Iterations 1
DICPCG:  Solving for T, Initial residual = 2.04928e-07, Final residual = 2.04928e-07, No Iterations 0
ExecutionTime = 0.71 s  ClockTime = 1 s

Time = 0.61

DICPCG:  Solving for T, Initial residual = 0.000935431, Final residual = 1.43343e-07, No Iterations 3
DICPCG:  Solving for T, Initial residual = 4.64107e-06, Final residual = 1.10027e-07, No Iterations 1
DICPCG:  Solving for T, Initial residual = 2.02825e-07, Final residual = 2.02825e-07, No Iterations 0
ExecutionTime = 0.72 s  ClockTime = 1 s

Time = 0.615

DICPCG:  Solving for T, Initial residual = 0.000928565, Final residual = 1.42215e-07, No Iterations 3
DICPCG:  Solving for T, Initial residual = 4.59185e-06, Final residual = 1.08942e-07, No Iterations 1
DICPCG:  Solving for T, Initial residual = 2.00751e-07, Final residual = 2.00751e-07, No Iterations 0
ExecutionTime = 0.72 s  ClockTime = 1 s

Time = 0.62

DICPCG:  Solving for T, Initial residual = 0.000921795, Final residual = 1.41102e-07, No Iterations 3
DICPCG:  Solving for T, Initial residual = 4.54345e-06, Final residual = 1.0787e-07, No Iterations 1
DICPCG:  Solving for T, Initial residual = 1.98708e-07, Final residual = 1.98708e-07, No Iterations 0
ExecutionTime = 0.72 s  ClockTime = 1 s

Time = 0.625

DICPCG:  Solving for T, Initial residual = 0.000915117, Final residual = 1.40001e-07, No Iterations 3
DICPCG:  Solving for T, Initial residual = 4.49604e-06, Final residual = 1.06813e-07, No Iterations 1
DICPCG:  Solving for T, Initial residual = 1.96696e-07, Final residual = 1.96696e-07, No Iterations 0
ExecutionTime = 0.73 s  ClockTime = 1 s

Time = 0.63

DICPCG:  Solving for T, Initial residual = 0.000908529, Final residual = 1.38915e-07, No Iterations 3
DICPCG:  Solving for T, Initial residual = 4.44951e-06, Final residual = 1.05769e-07, No Iterations 1
DICPCG:  Solving for T, Initial residual = 1.94712e-07, Final residual = 1.94712e-07, No Iterations 0
ExecutionTime = 0.73 s  ClockTime = 1 s

Time = 0.635

DICPCG:  Solving for T, Initial residual = 0.000902029, Final residual = 1.3784e-07, No Iterations 3
DICPCG:  Solving for T, Initial residual = 4.4037e-06, Final residual = 1.0474e-07, No Iterations 1
DICPCG:  Solving for T, Initial residual = 1.92755e-07, Final residual = 1.92755e-07, No Iterations 0
ExecutionTime = 0.73 s  ClockTime = 1 s

Time = 0.64

DICPCG:  Solving for T, Initial residual = 0.000895612, Final residual = 1.36779e-07, No Iterations 3
DICPCG:  Solving for T, Initial residual = 4.35857e-06, Final residual = 1.03724e-07, No Iterations 1
DICPCG:  Solving for T, Initial residual = 1.90829e-07, Final residual = 1.90829e-07, No Iterations 0
ExecutionTime = 0.73 s  ClockTime = 1 s

Time = 0.645

DICPCG:  Solving for T, Initial residual = 0.000889274, Final residual = 1.3573e-07, No Iterations 3
DICPCG:  Solving for T, Initial residual = 4.31425e-06, Final residual = 1.02719e-07, No Iterations 1
DICPCG:  Solving for T, Initial residual = 1.88926e-07, Final residual = 1.88926e-07, No Iterations 0
ExecutionTime = 0.74 s  ClockTime = 1 s

Time = 0.65

DICPCG:  Solving for T, Initial residual = 0.000883009, Final residual = 1.34692e-07, No Iterations 3
DICPCG:  Solving for T, Initial residual = 4.2707e-06, Final residual = 1.01727e-07, No Iterations 1
DICPCG:  Solving for T, Initial residual = 1.87047e-07, Final residual = 1.87047e-07, No Iterations 0
ExecutionTime = 0.74 s  ClockTime = 1 s

Time = 0.655

DICPCG:  Solving for T, Initial residual = 0.000876823, Final residual = 1.33666e-07, No Iterations 3
DICPCG:  Solving for T, Initial residual = 4.22786e-06, Final residual = 1.00748e-07, No Iterations 1
DICPCG:  Solving for T, Initial residual = 1.85193e-07, Final residual = 1.85193e-07, No Iterations 0
ExecutionTime = 0.74 s  ClockTime = 1 s

Time = 0.66

DICPCG:  Solving for T, Initial residual = 0.000870714, Final residual = 1.32653e-07, No Iterations 3
DICPCG:  Solving for T, Initial residual = 4.18564e-06, Final residual = 9.97812e-08, No Iterations 1
DICPCG:  Solving for T, Initial residual = 1.83363e-07, Final residual = 1.83363e-07, No Iterations 0
ExecutionTime = 0.75 s  ClockTime = 1 s

Time = 0.665

DICPCG:  Solving for T, Initial residual = 0.000864681, Final residual = 1.31652e-07, No Iterations 3
DICPCG:  Solving for T, Initial residual = 4.14403e-06, Final residual = 9.88314e-08, No Iterations 1
DICPCG:  Solving for T, Initial residual = 1.81555e-07, Final residual = 1.81555e-07, No Iterations 0
ExecutionTime = 0.75 s  ClockTime = 1 s

Time = 0.67

DICPCG:  Solving for T, Initial residual = 0.000858721, Final residual = 1.30661e-07, No Iterations 3
DICPCG:  Solving for T, Initial residual = 4.10298e-06, Final residual = 9.78957e-08, No Iterations 1
DICPCG:  Solving for T, Initial residual = 1.7977e-07, Final residual = 1.7977e-07, No Iterations 0
ExecutionTime = 0.75 s  ClockTime = 1 s

Time = 0.675

DICPCG:  Solving for T, Initial residual = 0.000852833, Final residual = 1.29681e-07, No Iterations 3
DICPCG:  Solving for T, Initial residual = 4.06261e-06, Final residual = 9.69765e-08, No Iterations 1
DICPCG:  Solving for T, Initial residual = 1.78019e-07, Final residual = 1.78019e-07, No Iterations 0
ExecutionTime = 0.76 s  ClockTime = 1 s

Time = 0.68

DICPCG:  Solving for T, Initial residual = 0.000847014, Final residual = 1.28712e-07, No Iterations 3
DICPCG:  Solving for T, Initial residual = 4.02285e-06, Final residual = 9.60692e-08, No Iterations 1
DICPCG:  Solving for T, Initial residual = 1.76298e-07, Final residual = 1.76298e-07, No Iterations 0
ExecutionTime = 0.76 s  ClockTime = 1 s

Time = 0.685

DICPCG:  Solving for T, Initial residual = 0.000841263, Final residual = 1.27753e-07, No Iterations 3
DICPCG:  Solving for T, Initial residual = 3.98376e-06, Final residual = 9.51723e-08, No Iterations 1
DICPCG:  Solving for T, Initial residual = 1.74605e-07, Final residual = 1.74605e-07, No Iterations 0
ExecutionTime = 0.76 s  ClockTime = 1 s

Time = 0.69

DICPCG:  Solving for T, Initial residual = 0.000835578, Final residual = 1.26805e-07, No Iterations 3
DICPCG:  Solving for T, Initial residual = 3.94527e-06, Final residual = 9.42862e-08, No Iterations 1
DICPCG:  Solving for T, Initial residual = 1.72934e-07, Final residual = 1.72934e-07, No Iterations 0
ExecutionTime = 0.77 s  ClockTime = 1 s

Time = 0.695

DICPCG:  Solving for T, Initial residual = 0.00082996, Final residual = 1.25867e-07, No Iterations 3
DICPCG:  Solving for T, Initial residual = 3.90741e-06, Final residual = 9.34102e-08, No Iterations 1
DICPCG:  Solving for T, Initial residual = 1.71289e-07, Final residual = 1.71289e-07, No Iterations 0
ExecutionTime = 0.77 s  ClockTime = 1 s

Time = 0.7

DICPCG:  Solving for T, Initial residual = 0.000824408, Final residual = 1.24939e-07, No Iterations 3
DICPCG:  Solving for T, Initial residual = 3.87006e-06, Final residual = 9.25487e-08, No Iterations 1
DICPCG:  Solving for T, Initial residual = 1.69668e-07, Final residual = 1.69668e-07, No Iterations 0
ExecutionTime = 0.78 s  ClockTime = 1 s

Time = 0.705

DICPCG:  Solving for T, Initial residual = 0.00081892, Final residual = 1.24022e-07, No Iterations 3
DICPCG:  Solving for T, Initial residual = 3.83322e-06, Final residual = 9.16989e-08, No Iterations 1
DICPCG:  Solving for T, Initial residual = 1.68068e-07, Final residual = 1.68068e-07, No Iterations 0
ExecutionTime = 0.78 s  ClockTime = 1 s

Time = 0.71

DICPCG:  Solving for T, Initial residual = 0.000813494, Final residual = 1.23114e-07, No Iterations 3
DICPCG:  Solving for T, Initial residual = 3.79694e-06, Final residual = 9.08592e-08, No Iterations 1
DICPCG:  Solving for T, Initial residual = 1.66491e-07, Final residual = 1.66491e-07, No Iterations 0
ExecutionTime = 0.78 s  ClockTime = 1 s

Time = 0.715

DICPCG:  Solving for T, Initial residual = 0.000808129, Final residual = 1.22215e-07, No Iterations 3
DICPCG:  Solving for T, Initial residual = 3.76112e-06, Final residual = 9.00286e-08, No Iterations 1
DICPCG:  Solving for T, Initial residual = 1.64935e-07, Final residual = 1.64935e-07, No Iterations 0
ExecutionTime = 0.8 s  ClockTime = 1 s

Time = 0.72

DICPCG:  Solving for T, Initial residual = 0.000802824, Final residual = 1.21326e-07, No Iterations 3
DICPCG:  Solving for T, Initial residual = 3.72587e-06, Final residual = 8.92081e-08, No Iterations 1
DICPCG:  Solving for T, Initial residual = 1.634e-07, Final residual = 1.634e-07, No Iterations 0
ExecutionTime = 0.8 s  ClockTime = 1 s

Time = 0.725

DICPCG:  Solving for T, Initial residual = 0.000797578, Final residual = 1.20446e-07, No Iterations 3
DICPCG:  Solving for T, Initial residual = 3.69109e-06, Final residual = 8.8397e-08, No Iterations 1
DICPCG:  Solving for T, Initial residual = 1.61883e-07, Final residual = 1.61883e-07, No Iterations 0
ExecutionTime = 0.8 s  ClockTime = 1 s

Time = 0.73

DICPCG:  Solving for T, Initial residual = 0.000792389, Final residual = 1.19576e-07, No Iterations 3
DICPCG:  Solving for T, Initial residual = 3.65677e-06, Final residual = 8.75956e-08, No Iterations 1
DICPCG:  Solving for T, Initial residual = 1.60386e-07, Final residual = 1.60386e-07, No Iterations 0
ExecutionTime = 0.81 s  ClockTime = 1 s

Time = 0.735

DICPCG:  Solving for T, Initial residual = 0.000787252, Final residual = 1.18713e-07, No Iterations 3
DICPCG:  Solving for T, Initial residual = 3.62283e-06, Final residual = 8.68025e-08, No Iterations 1
DICPCG:  Solving for T, Initial residual = 1.58908e-07, Final residual = 1.58908e-07, No Iterations 0
ExecutionTime = 0.81 s  ClockTime = 1 s

Time = 0.74

DICPCG:  Solving for T, Initial residual = 0.000782168, Final residual = 1.17859e-07, No Iterations 3
DICPCG:  Solving for T, Initial residual = 3.5893e-06, Final residual = 8.60179e-08, No Iterations 1
DICPCG:  Solving for T, Initial residual = 1.57448e-07, Final residual = 1.57448e-07, No Iterations 0
ExecutionTime = 0.82 s  ClockTime = 1 s

Time = 0.745

DICPCG:  Solving for T, Initial residual = 0.000777136, Final residual = 1.17014e-07, No Iterations 3
DICPCG:  Solving for T, Initial residual = 3.55622e-06, Final residual = 8.52424e-08, No Iterations 1
DICPCG:  Solving for T, Initial residual = 1.56004e-07, Final residual = 1.56004e-07, No Iterations 0
ExecutionTime = 0.82 s  ClockTime = 1 s

Time = 0.75

DICPCG:  Solving for T, Initial residual = 0.000772156, Final residual = 1.16177e-07, No Iterations 3
DICPCG:  Solving for T, Initial residual = 3.52364e-06, Final residual = 8.44758e-08, No Iterations 1
DICPCG:  Solving for T, Initial residual = 1.54586e-07, Final residual = 1.54586e-07, No Iterations 0
ExecutionTime = 0.82 s  ClockTime = 1 s

Time = 0.755

DICPCG:  Solving for T, Initial residual = 0.000767228, Final residual = 1.15349e-07, No Iterations 3
DICPCG:  Solving for T, Initial residual = 3.49148e-06, Final residual = 8.37182e-08, No Iterations 1
DICPCG:  Solving for T, Initial residual = 1.53186e-07, Final residual = 1.53186e-07, No Iterations 0
ExecutionTime = 0.83 s  ClockTime = 1 s

Time = 0.76

DICPCG:  Solving for T, Initial residual = 0.000762351, Final residual = 1.14528e-07, No Iterations 3
DICPCG:  Solving for T, Initial residual = 3.45976e-06, Final residual = 8.29691e-08, No Iterations 1
DICPCG:  Solving for T, Initial residual = 1.51805e-07, Final residual = 1.51805e-07, No Iterations 0
ExecutionTime = 0.83 s  ClockTime = 1 s

Time = 0.765

DICPCG:  Solving for T, Initial residual = 0.000757522, Final residual = 1.13716e-07, No Iterations 3
DICPCG:  Solving for T, Initial residual = 3.42841e-06, Final residual = 8.223e-08, No Iterations 1
DICPCG:  Solving for T, Initial residual = 1.50444e-07, Final residual = 1.50444e-07, No Iterations 0
ExecutionTime = 0.83 s  ClockTime = 1 s

Time = 0.77

DICPCG:  Solving for T, Initial residual = 0.000752742, Final residual = 1.12911e-07, No Iterations 3
DICPCG:  Solving for T, Initial residual = 3.39744e-06, Final residual = 8.14981e-08, No Iterations 1
DICPCG:  Solving for T, Initial residual = 1.49097e-07, Final residual = 1.49097e-07, No Iterations 0
ExecutionTime = 0.84 s  ClockTime = 1 s

Time = 0.775

DICPCG:  Solving for T, Initial residual = 0.000748008, Final residual = 1.12114e-07, No Iterations 3
DICPCG:  Solving for T, Initial residual = 3.36682e-06, Final residual = 8.07744e-08, No Iterations 1
DICPCG:  Solving for T, Initial residual = 1.4777e-07, Final residual = 1.4777e-07, No Iterations 0
ExecutionTime = 0.84 s  ClockTime = 1 s

Time = 0.78

DICPCG:  Solving for T, Initial residual = 0.000743322, Final residual = 1.11325e-07, No Iterations 3
DICPCG:  Solving for T, Initial residual = 3.33657e-06, Final residual = 8.00617e-08, No Iterations 1
DICPCG:  Solving for T, Initial residual = 1.46459e-07, Final residual = 1.46459e-07, No Iterations 0
ExecutionTime = 0.84 s  ClockTime = 1 s

Time = 0.785

DICPCG:  Solving for T, Initial residual = 0.000738683, Final residual = 1.10543e-07, No Iterations 3
DICPCG:  Solving for T, Initial residual = 3.30673e-06, Final residual = 7.93564e-08, No Iterations 1
DICPCG:  Solving for T, Initial residual = 1.4517e-07, Final residual = 1.4517e-07, No Iterations 0
ExecutionTime = 0.85 s  ClockTime = 1 s

Time = 0.79

DICPCG:  Solving for T, Initial residual = 0.000734089, Final residual = 1.09768e-07, No Iterations 3
DICPCG:  Solving for T, Initial residual = 3.27726e-06, Final residual = 7.86594e-08, No Iterations 1
DICPCG:  Solving for T, Initial residual = 1.43905e-07, Final residual = 1.43905e-07, No Iterations 0
ExecutionTime = 0.85 s  ClockTime = 1 s

Time = 0.795

DICPCG:  Solving for T, Initial residual = 0.000729541, Final residual = 1.09001e-07, No Iterations 3
DICPCG:  Solving for T, Initial residual = 3.24817e-06, Final residual = 7.79697e-08, No Iterations 1
DICPCG:  Solving for T, Initial residual = 1.42655e-07, Final residual = 1.42655e-07, No Iterations 0
ExecutionTime = 0.85 s  ClockTime = 1 s

Time = 0.8

DICPCG:  Solving for T, Initial residual = 0.000725036, Final residual = 1.08242e-07, No Iterations 3
DICPCG:  Solving for T, Initial residual = 3.2195e-06, Final residual = 7.72869e-08, No Iterations 1
DICPCG:  Solving for T, Initial residual = 1.41419e-07, Final residual = 1.41419e-07, No Iterations 0
ExecutionTime = 0.87 s  ClockTime = 1 s

Time = 0.805

DICPCG:  Solving for T, Initial residual = 0.000720575, Final residual = 1.07489e-07, No Iterations 3
DICPCG:  Solving for T, Initial residual = 3.1912e-06, Final residual = 7.66129e-08, No Iterations 1
DICPCG:  Solving for T, Initial residual = 1.40196e-07, Final residual = 1.40196e-07, No Iterations 0
ExecutionTime = 0.87 s  ClockTime = 1 s

Time = 0.81

DICPCG:  Solving for T, Initial residual = 0.000716157, Final residual = 1.06744e-07, No Iterations 3
DICPCG:  Solving for T, Initial residual = 3.16326e-06, Final residual = 7.5947e-08, No Iterations 1
DICPCG:  Solving for T, Initial residual = 1.38987e-07, Final residual = 1.38987e-07, No Iterations 0
ExecutionTime = 0.87 s  ClockTime = 1 s

Time = 0.815

DICPCG:  Solving for T, Initial residual = 0.000711781, Final residual = 1.06006e-07, No Iterations 3
DICPCG:  Solving for T, Initial residual = 3.13564e-06, Final residual = 7.52892e-08, No Iterations 1
DICPCG:  Solving for T, Initial residual = 1.3779e-07, Final residual = 1.3779e-07, No Iterations 0
ExecutionTime = 0.88 s  ClockTime = 1 s

Time = 0.82

DICPCG:  Solving for T, Initial residual = 0.000707447, Final residual = 1.05275e-07, No Iterations 3
DICPCG:  Solving for T, Initial residual = 3.10832e-06, Final residual = 7.46377e-08, No Iterations 1
DICPCG:  Solving for T, Initial residual = 1.36606e-07, Final residual = 1.36606e-07, No Iterations 0
ExecutionTime = 0.88 s  ClockTime = 1 s

Time = 0.825

DICPCG:  Solving for T, Initial residual = 0.000703153, Final residual = 1.04551e-07, No Iterations 3
DICPCG:  Solving for T, Initial residual = 3.08131e-06, Final residual = 7.39927e-08, No Iterations 1
DICPCG:  Solving for T, Initial residual = 1.35436e-07, Final residual = 1.35436e-07, No Iterations 0
ExecutionTime = 0.88 s  ClockTime = 1 s

Time = 0.83

DICPCG:  Solving for T, Initial residual = 0.0006989, Final residual = 1.03834e-07, No Iterations 3
DICPCG:  Solving for T, Initial residual = 3.05459e-06, Final residual = 7.33547e-08, No Iterations 1
DICPCG:  Solving for T, Initial residual = 1.34281e-07, Final residual = 1.34281e-07, No Iterations 0
ExecutionTime = 0.89 s  ClockTime = 1 s

Time = 0.835

DICPCG:  Solving for T, Initial residual = 0.000694685, Final residual = 1.03123e-07, No Iterations 3
DICPCG:  Solving for T, Initial residual = 3.02814e-06, Final residual = 7.27231e-08, No Iterations 1
DICPCG:  Solving for T, Initial residual = 1.33137e-07, Final residual = 1.33137e-07, No Iterations 0
ExecutionTime = 0.89 s  ClockTime = 1 s

Time = 0.84

DICPCG:  Solving for T, Initial residual = 0.000690508, Final residual = 1.02419e-07, No Iterations 3
DICPCG:  Solving for T, Initial residual = 3.00197e-06, Final residual = 7.20975e-08, No Iterations 1
DICPCG:  Solving for T, Initial residual = 1.32005e-07, Final residual = 1.32005e-07, No Iterations 0
ExecutionTime = 0.89 s  ClockTime = 1 s

Time = 0.845

DICPCG:  Solving for T, Initial residual = 0.000686369, Final residual = 1.01721e-07, No Iterations 3
DICPCG:  Solving for T, Initial residual = 2.97611e-06, Final residual = 7.14777e-08, No Iterations 1
DICPCG:  Solving for T, Initial residual = 1.30885e-07, Final residual = 1.30885e-07, No Iterations 0
ExecutionTime = 0.9 s  ClockTime = 1 s

Time = 0.85

DICPCG:  Solving for T, Initial residual = 0.000682267, Final residual = 1.01029e-07, No Iterations 3
DICPCG:  Solving for T, Initial residual = 2.95054e-06, Final residual = 7.08667e-08, No Iterations 1
DICPCG:  Solving for T, Initial residual = 1.29775e-07, Final residual = 1.29775e-07, No Iterations 0
ExecutionTime = 0.9 s  ClockTime = 1 s

Time = 0.855

DICPCG:  Solving for T, Initial residual = 0.000678202, Final residual = 1.00344e-07, No Iterations 3
DICPCG:  Solving for T, Initial residual = 2.92524e-06, Final residual = 7.02623e-08, No Iterations 1
DICPCG:  Solving for T, Initial residual = 1.28678e-07, Final residual = 1.28678e-07, No Iterations 0
ExecutionTime = 0.9 s  ClockTime = 1 s

Time = 0.86

DICPCG:  Solving for T, Initial residual = 0.000674173, Final residual = 9.96649e-08, No Iterations 3
DICPCG:  Solving for T, Initial residual = 2.90023e-06, Final residual = 6.96647e-08, No Iterations 1
DICPCG:  Solving for T, Initial residual = 1.27593e-07, Final residual = 1.27593e-07, No Iterations 0
ExecutionTime = 0.91 s  ClockTime = 1 s

Time = 0.865

DICPCG:  Solving for T, Initial residual = 0.000670181, Final residual = 9.8992e-08, No Iterations 3
DICPCG:  Solving for T, Initial residual = 2.87549e-06, Final residual = 6.90734e-08, No Iterations 1
DICPCG:  Solving for T, Initial residual = 1.26519e-07, Final residual = 1.26519e-07, No Iterations 0
ExecutionTime = 0.91 s  ClockTime = 1 s

Time = 0.87

DICPCG:  Solving for T, Initial residual = 0.000666224, Final residual = 9.83252e-08, No Iterations 3
DICPCG:  Solving for T, Initial residual = 2.85101e-06, Final residual = 6.84881e-08, No Iterations 1
DICPCG:  Solving for T, Initial residual = 1.25455e-07, Final residual = 1.25455e-07, No Iterations 0
ExecutionTime = 0.91 s  ClockTime = 1 s

Time = 0.875

DICPCG:  Solving for T, Initial residual = 0.000662302, Final residual = 9.76643e-08, No Iterations 3
DICPCG:  Solving for T, Initial residual = 2.82679e-06, Final residual = 6.79092e-08, No Iterations 1
DICPCG:  Solving for T, Initial residual = 1.24402e-07, Final residual = 1.24402e-07, No Iterations 0
ExecutionTime = 0.92 s  ClockTime = 1 s

Time = 0.88

DICPCG:  Solving for T, Initial residual = 0.000658415, Final residual = 9.70095e-08, No Iterations 3
DICPCG:  Solving for T, Initial residual = 2.80284e-06, Final residual = 6.73358e-08, No Iterations 1
DICPCG:  Solving for T, Initial residual = 1.23362e-07, Final residual = 1.23362e-07, No Iterations 0
ExecutionTime = 0.92 s  ClockTime = 1 s

Time = 0.885

DICPCG:  Solving for T, Initial residual = 0.000654562, Final residual = 9.63608e-08, No Iterations 3
DICPCG:  Solving for T, Initial residual = 2.77916e-06, Final residual = 6.67678e-08, No Iterations 1
DICPCG:  Solving for T, Initial residual = 1.22333e-07, Final residual = 1.22333e-07, No Iterations 0
ExecutionTime = 0.92 s  ClockTime = 1 s

Time = 0.89

DICPCG:  Solving for T, Initial residual = 0.000650742, Final residual = 9.5718e-08, No Iterations 3
DICPCG:  Solving for T, Initial residual = 2.75575e-06, Final residual = 6.62053e-08, No Iterations 1
DICPCG:  Solving for T, Initial residual = 1.21316e-07, Final residual = 1.21316e-07, No Iterations 0
ExecutionTime = 0.93 s  ClockTime = 1 s

Time = 0.895

DICPCG:  Solving for T, Initial residual = 0.000646956, Final residual = 9.50809e-08, No Iterations 3
DICPCG:  Solving for T, Initial residual = 2.73263e-06, Final residual = 6.56483e-08, No Iterations 1
DICPCG:  Solving for T, Initial residual = 1.20308e-07, Final residual = 1.20308e-07, No Iterations 0
ExecutionTime = 0.93 s  ClockTime = 1 s

Time = 0.9

DICPCG:  Solving for T, Initial residual = 0.000643203, Final residual = 9.44495e-08, No Iterations 3
DICPCG:  Solving for T, Initial residual = 2.7098e-06, Final residual = 6.50969e-08, No Iterations 1
DICPCG:  Solving for T, Initial residual = 1.1931e-07, Final residual = 1.1931e-07, No Iterations 0
ExecutionTime = 0.94 s  ClockTime = 1 s

Time = 0.905

DICPCG:  Solving for T, Initial residual = 0.000639482, Final residual = 9.38236e-08, No Iterations 3
DICPCG:  Solving for T, Initial residual = 2.68729e-06, Final residual = 6.45509e-08, No Iterations 1
DICPCG:  Solving for T, Initial residual = 1.18322e-07, Final residual = 1.18322e-07, No Iterations 0
ExecutionTime = 0.95 s  ClockTime = 1 s

Time = 0.91

DICPCG:  Solving for T, Initial residual = 0.000635792, Final residual = 9.32034e-08, No Iterations 3
DICPCG:  Solving for T, Initial residual = 2.66504e-06, Final residual = 6.40108e-08, No Iterations 1
DICPCG:  Solving for T, Initial residual = 1.17346e-07, Final residual = 1.17346e-07, No Iterations 0
ExecutionTime = 0.95 s  ClockTime = 1 s

Time = 0.915

DICPCG:  Solving for T, Initial residual = 0.000632134, Final residual = 9.25887e-08, No Iterations 3
DICPCG:  Solving for T, Initial residual = 2.643e-06, Final residual = 6.34767e-08, No Iterations 1
DICPCG:  Solving for T, Initial residual = 1.16379e-07, Final residual = 1.16379e-07, No Iterations 0
ExecutionTime = 0.95 s  ClockTime = 1 s

Time = 0.92

DICPCG:  Solving for T, Initial residual = 0.000628507, Final residual = 9.19795e-08, No Iterations 3
DICPCG:  Solving for T, Initial residual = 2.6212e-06, Final residual = 6.29477e-08, No Iterations 1
DICPCG:  Solving for T, Initial residual = 1.15421e-07, Final residual = 1.15421e-07, No Iterations 0
ExecutionTime = 0.96 s  ClockTime = 1 s

Time = 0.925

DICPCG:  Solving for T, Initial residual = 0.00062491, Final residual = 9.13755e-08, No Iterations 3
DICPCG:  Solving for T, Initial residual = 2.59963e-06, Final residual = 6.24239e-08, No Iterations 1
DICPCG:  Solving for T, Initial residual = 1.14472e-07, Final residual = 1.14472e-07, No Iterations 0
ExecutionTime = 0.96 s  ClockTime = 1 s

Time = 0.93

DICPCG:  Solving for T, Initial residual = 0.000621343, Final residual = 9.07767e-08, No Iterations 3
DICPCG:  Solving for T, Initial residual = 2.5783e-06, Final residual = 6.19053e-08, No Iterations 1
DICPCG:  Solving for T, Initial residual = 1.13535e-07, Final residual = 1.13535e-07, No Iterations 0
ExecutionTime = 0.96 s  ClockTime = 1 s

Time = 0.935

DICPCG:  Solving for T, Initial residual = 0.000617806, Final residual = 9.01831e-08, No Iterations 3
DICPCG:  Solving for T, Initial residual = 2.55721e-06, Final residual = 6.13916e-08, No Iterations 1
DICPCG:  Solving for T, Initial residual = 1.12611e-07, Final residual = 1.12611e-07, No Iterations 0
ExecutionTime = 0.97 s  ClockTime = 1 s

Time = 0.94

DICPCG:  Solving for T, Initial residual = 0.000614297, Final residual = 8.95946e-08, No Iterations 3
DICPCG:  Solving for T, Initial residual = 2.53636e-06, Final residual = 6.0883e-08, No Iterations 1
DICPCG:  Solving for T, Initial residual = 1.11696e-07, Final residual = 1.11696e-07, No Iterations 0
ExecutionTime = 0.97 s  ClockTime = 1 s

Time = 0.945

DICPCG:  Solving for T, Initial residual = 0.000610816, Final residual = 8.9011e-08, No Iterations 3
DICPCG:  Solving for T, Initial residual = 2.51572e-06, Final residual = 6.03799e-08, No Iterations 1
DICPCG:  Solving for T, Initial residual = 1.10789e-07, Final residual = 1.10789e-07, No Iterations 0
ExecutionTime = 0.97 s  ClockTime = 1 s

Time = 0.95

DICPCG:  Solving for T, Initial residual = 0.000607363, Final residual = 8.84324e-08, No Iterations 3
DICPCG:  Solving for T, Initial residual = 2.4953e-06, Final residual = 5.98818e-08, No Iterations 1
DICPCG:  Solving for T, Initial residual = 1.09891e-07, Final residual = 1.09891e-07, No Iterations 0
ExecutionTime = 0.98 s  ClockTime = 1 s

Time = 0.955

DICPCG:  Solving for T, Initial residual = 0.000603939, Final residual = 8.78587e-08, No Iterations 3
DICPCG:  Solving for T, Initial residual = 2.47508e-06, Final residual = 5.93884e-08, No Iterations 1
DICPCG:  Solving for T, Initial residual = 1.09003e-07, Final residual = 1.09003e-07, No Iterations 0
ExecutionTime = 0.98 s  ClockTime = 1 s

Time = 0.96

DICPCG:  Solving for T, Initial residual = 0.000600542, Final residual = 8.72898e-08, No Iterations 3
DICPCG:  Solving for T, Initial residual = 2.45507e-06, Final residual = 5.88994e-08, No Iterations 1
DICPCG:  Solving for T, Initial residual = 1.08123e-07, Final residual = 1.08123e-07, No Iterations 0
ExecutionTime = 0.98 s  ClockTime = 1 s

Time = 0.965

DICPCG:  Solving for T, Initial residual = 0.000597172, Final residual = 9.9548e-07, No Iterations 2
DICPCG:  Solving for T, Initial residual = 2.78094e-06, Final residual = 1.07338e-07, No Iterations 1
DICPCG:  Solving for T, Initial residual = 1.53354e-07, Final residual = 1.53354e-07, No Iterations 0
ExecutionTime = 0.99 s  ClockTime = 1 s

Time = 0.97

DICPCG:  Solving for T, Initial residual = 0.000593829, Final residual = 9.90171e-07, No Iterations 2
DICPCG:  Solving for T, Initial residual = 2.75842e-06, Final residual = 1.06361e-07, No Iterations 1
DICPCG:  Solving for T, Initial residual = 1.52005e-07, Final residual = 1.52005e-07, No Iterations 0
ExecutionTime = 0.99 s  ClockTime = 1 s

Time = 0.975

DICPCG:  Solving for T, Initial residual = 0.000590513, Final residual = 9.84328e-07, No Iterations 2
DICPCG:  Solving for T, Initial residual = 2.73706e-06, Final residual = 1.05496e-07, No Iterations 1
DICPCG:  Solving for T, Initial residual = 1.50748e-07, Final residual = 1.50748e-07, No Iterations 0
ExecutionTime = 0.99 s  ClockTime = 1 s

Time = 0.98

DICPCG:  Solving for T, Initial residual = 0.000587223, Final residual = 9.78403e-07, No Iterations 2
DICPCG:  Solving for T, Initial residual = 2.71615e-06, Final residual = 1.04691e-07, No Iterations 1
DICPCG:  Solving for T, Initial residual = 1.49553e-07, Final residual = 1.49553e-07, No Iterations 0
ExecutionTime = 1 s  ClockTime = 1 s

Time = 0.985

DICPCG:  Solving for T, Initial residual = 0.000583959, Final residual = 9.72481e-07, No Iterations 2
DICPCG:  Solving for T, Initial residual = 2.69554e-06, Final residual = 1.03916e-07, No Iterations 1
DICPCG:  Solving for T, Initial residual = 1.48392e-07, Final residual = 1.48392e-07, No Iterations 0
ExecutionTime = 1 s  ClockTime = 1 s

Time = 0.99

DICPCG:  Solving for T, Initial residual = 0.000580721, Final residual = 9.66588e-07, No Iterations 2
DICPCG:  Solving for T, Initial residual = 2.67518e-06, Final residual = 1.03158e-07, No Iterations 1
DICPCG:  Solving for T, Initial residual = 1.47251e-07, Final residual = 1.47251e-07, No Iterations 0
ExecutionTime = 1 s  ClockTime = 1 s

Time = 0.995

DICPCG:  Solving for T, Initial residual = 0.000577508, Final residual = 9.60734e-07, No Iterations 2
DICPCG:  Solving for T, Initial residual = 2.65502e-06, Final residual = 1.02411e-07, No Iterations 1
DICPCG:  Solving for T, Initial residual = 1.46127e-07, Final residual = 1.46127e-07, No Iterations 0
ExecutionTime = 1.01 s  ClockTime = 1 s

Time = 1

DICPCG:  Solving for T, Initial residual = 0.000574321, Final residual = 9.54922e-07, No Iterations 2
DICPCG:  Solving for T, Initial residual = 2.63506e-06, Final residual = 1.01674e-07, No Iterations 1
DICPCG:  Solving for T, Initial residual = 1.45015e-07, Final residual = 1.45015e-07, No Iterations 0
ExecutionTime = 1.02 s  ClockTime = 1 s

Time = 1.005

DICPCG:  Solving for T, Initial residual = 0.000571159, Final residual = 9.49155e-07, No Iterations 2
DICPCG:  Solving for T, Initial residual = 2.6153e-06, Final residual = 1.00945e-07, No Iterations 1
DICPCG:  Solving for T, Initial residual = 1.43915e-07, Final residual = 1.43915e-07, No Iterations 0
ExecutionTime = 1.02 s  ClockTime = 1 s

Time = 1.01

DICPCG:  Solving for T, Initial residual = 0.000568021, Final residual = 9.43433e-07, No Iterations 2
DICPCG:  Solving for T, Initial residual = 2.59575e-06, Final residual = 1.00224e-07, No Iterations 1
DICPCG:  Solving for T, Initial residual = 1.42827e-07, Final residual = 1.42827e-07, No Iterations 0
ExecutionTime = 1.03 s  ClockTime = 1 s

Time = 1.015

DICPCG:  Solving for T, Initial residual = 0.000564907, Final residual = 9.37757e-07, No Iterations 2
DICPCG:  Solving for T, Initial residual = 2.57639e-06, Final residual = 9.95103e-08, No Iterations 1
DICPCG:  Solving for T, Initial residual = 1.4175e-07, Final residual = 1.4175e-07, No Iterations 0
ExecutionTime = 1.03 s  ClockTime = 1 s

Time = 1.02

DICPCG:  Solving for T, Initial residual = 0.000561818, Final residual = 9.32127e-07, No Iterations 2
DICPCG:  Solving for T, Initial residual = 2.5572e-06, Final residual = 9.88046e-08, No Iterations 1
DICPCG:  Solving for T, Initial residual = 1.40687e-07, Final residual = 1.40687e-07, No Iterations 0
ExecutionTime = 1.03 s  ClockTime = 1 s

Time = 1.025

DICPCG:  Solving for T, Initial residual = 0.000558751, Final residual = 9.26542e-07, No Iterations 2
DICPCG:  Solving for T, Initial residual = 2.53819e-06, Final residual = 9.81069e-08, No Iterations 1
DICPCG:  Solving for T, Initial residual = 1.39635e-07, Final residual = 1.39635e-07, No Iterations 0
ExecutionTime = 1.04 s  ClockTime = 1 s

Time = 1.03

DICPCG:  Solving for T, Initial residual = 0.000555708, Final residual = 9.21003e-07, No Iterations 2
DICPCG:  Solving for T, Initial residual = 2.5194e-06, Final residual = 9.7417e-08, No Iterations 1
DICPCG:  Solving for T, Initial residual = 1.38593e-07, Final residual = 1.38593e-07, No Iterations 0
ExecutionTime = 1.04 s  ClockTime = 1 s

Time = 1.035

DICPCG:  Solving for T, Initial residual = 0.000552688, Final residual = 9.15509e-07, No Iterations 2
DICPCG:  Solving for T, Initial residual = 2.50078e-06, Final residual = 9.67339e-08, No Iterations 1
DICPCG:  Solving for T, Initial residual = 1.37561e-07, Final residual = 1.37561e-07, No Iterations 0
ExecutionTime = 1.04 s  ClockTime = 1 s

Time = 1.04

DICPCG:  Solving for T, Initial residual = 0.000549691, Final residual = 9.1006e-07, No Iterations 2
DICPCG:  Solving for T, Initial residual = 2.48233e-06, Final residual = 9.60572e-08, No Iterations 1
DICPCG:  Solving for T, Initial residual = 1.36539e-07, Final residual = 1.36539e-07, No Iterations 0
ExecutionTime = 1.05 s  ClockTime = 1 s

Time = 1.045

DICPCG:  Solving for T, Initial residual = 0.000546716, Final residual = 9.04656e-07, No Iterations 2
DICPCG:  Solving for T, Initial residual = 2.46404e-06, Final residual = 9.53865e-08, No Iterations 1
DICPCG:  Solving for T, Initial residual = 1.35527e-07, Final residual = 1.35527e-07, No Iterations 0
ExecutionTime = 1.05 s  ClockTime = 1 s

Time = 1.05

DICPCG:  Solving for T, Initial residual = 0.000543762, Final residual = 8.99295e-07, No Iterations 2
DICPCG:  Solving for T, Initial residual = 2.44593e-06, Final residual = 9.47219e-08, No Iterations 1
DICPCG:  Solving for T, Initial residual = 1.34524e-07, Final residual = 1.34524e-07, No Iterations 0
ExecutionTime = 1.05 s  ClockTime = 1 s

Time = 1.055

DICPCG:  Solving for T, Initial residual = 0.000540831, Final residual = 8.93978e-07, No Iterations 2
DICPCG:  Solving for T, Initial residual = 2.42799e-06, Final residual = 9.40633e-08, No Iterations 1
DICPCG:  Solving for T, Initial residual = 1.33532e-07, Final residual = 1.33532e-07, No Iterations 0
ExecutionTime = 1.05 s  ClockTime = 1 s

Time = 1.06

DICPCG:  Solving for T, Initial residual = 0.000537922, Final residual = 8.88704e-07, No Iterations 2
DICPCG:  Solving for T, Initial residual = 2.41023e-06, Final residual = 9.34107e-08, No Iterations 1
DICPCG:  Solving for T, Initial residual = 1.32551e-07, Final residual = 1.32551e-07, No Iterations 0
ExecutionTime = 1.06 s  ClockTime = 1 s

Time = 1.065

DICPCG:  Solving for T, Initial residual = 0.000535034, Final residual = 8.83473e-07, No Iterations 2
DICPCG:  Solving for T, Initial residual = 2.39264e-06, Final residual = 9.27645e-08, No Iterations 1
DICPCG:  Solving for T, Initial residual = 1.3158e-07, Final residual = 1.3158e-07, No Iterations 0
ExecutionTime = 1.06 s  ClockTime = 1 s

Time = 1.07

DICPCG:  Solving for T, Initial residual = 0.000532168, Final residual = 8.78284e-07, No Iterations 2
DICPCG:  Solving for T, Initial residual = 2.37521e-06, Final residual = 9.21248e-08, No Iterations 1
DICPCG:  Solving for T, Initial residual = 1.30619e-07, Final residual = 1.30619e-07, No Iterations 0
ExecutionTime = 1.06 s  ClockTime = 1 s

Time = 1.075

DICPCG:  Solving for T, Initial residual = 0.000529324, Final residual = 8.73138e-07, No Iterations 2
DICPCG:  Solving for T, Initial residual = 2.35795e-06, Final residual = 9.14919e-08, No Iterations 1
DICPCG:  Solving for T, Initial residual = 1.29666e-07, Final residual = 1.29666e-07, No Iterations 0
ExecutionTime = 1.07 s  ClockTime = 1 s

Time = 1.08

DICPCG:  Solving for T, Initial residual = 0.0005265, Final residual = 8.68033e-07, No Iterations 2
DICPCG:  Solving for T, Initial residual = 2.34088e-06, Final residual = 9.0866e-08, No Iterations 1
DICPCG:  Solving for T, Initial residual = 1.28723e-07, Final residual = 1.28723e-07, No Iterations 0
ExecutionTime = 1.07 s  ClockTime = 1 s

Time = 1.085

DICPCG:  Solving for T, Initial residual = 0.000523697, Final residual = 8.62969e-07, No Iterations 2
DICPCG:  Solving for T, Initial residual = 2.32396e-06, Final residual = 9.02467e-08, No Iterations 1
DICPCG:  Solving for T, Initial residual = 1.2779e-07, Final residual = 1.2779e-07, No Iterations 0
ExecutionTime = 1.07 s  ClockTime = 1 s

Time = 1.09

DICPCG:  Solving for T, Initial residual = 0.000520915, Final residual = 8.57947e-07, No Iterations 2
DICPCG:  Solving for T, Initial residual = 2.30719e-06, Final residual = 8.96332e-08, No Iterations 1
DICPCG:  Solving for T, Initial residual = 1.26865e-07, Final residual = 1.26865e-07, No Iterations 0
ExecutionTime = 1.08 s  ClockTime = 1 s

Time = 1.095

DICPCG:  Solving for T, Initial residual = 0.000518153, Final residual = 8.52966e-07, No Iterations 2
DICPCG:  Solving for T, Initial residual = 2.29057e-06, Final residual = 8.90254e-08, No Iterations 1
DICPCG:  Solving for T, Initial residual = 1.25949e-07, Final residual = 1.25949e-07, No Iterations 0
ExecutionTime = 1.08 s  ClockTime = 1 s

Time = 1.1

DICPCG:  Solving for T, Initial residual = 0.000515412, Final residual = 8.48025e-07, No Iterations 2
[...]
DICPCG:  Solving for T, Initial residual = 3.98818e-07, Final residual = 3.98818e-07, No Iterations 0
ExecutionTime = 2.26 s  ClockTime = 2 s

Time = 2.73

DICPCG:  Solving for T, Initial residual = 0.000131983, Final residual = 2.3013e-07, No Iterations 2
DICPCG:  Solving for T, Initial residual = 3.97355e-07, Final residual = 3.97355e-07, No Iterations 0
DICPCG:  Solving for T, Initial residual = 3.97355e-07, Final residual = 3.97355e-07, No Iterations 0
ExecutionTime = 2.26 s  ClockTime = 2 s

Time = 2.735

DICPCG:  Solving for T, Initial residual = 0.000131551, Final residual = 2.29531e-07, No Iterations 2
DICPCG:  Solving for T, Initial residual = 3.959e-07, Final residual = 3.959e-07, No Iterations 0
DICPCG:  Solving for T, Initial residual = 3.959e-07, Final residual = 3.959e-07, No Iterations 0
ExecutionTime = 2.27 s  ClockTime = 2 s

Time = 2.74

DICPCG:  Solving for T, Initial residual = 0.000131121, Final residual = 2.28934e-07, No Iterations 2
DICPCG:  Solving for T, Initial residual = 3.94454e-07, Final residual = 3.94454e-07, No Iterations 0
DICPCG:  Solving for T, Initial residual = 3.94454e-07, Final residual = 3.94454e-07, No Iterations 0
ExecutionTime = 2.27 s  ClockTime = 2 s

Time = 2.745

DICPCG:  Solving for T, Initial residual = 0.000130694, Final residual = 2.28341e-07, No Iterations 2
DICPCG:  Solving for T, Initial residual = 3.93015e-07, Final residual = 3.93015e-07, No Iterations 0
DICPCG:  Solving for T, Initial residual = 3.93015e-07, Final residual = 3.93015e-07, No Iterations 0
ExecutionTime = 2.27 s  ClockTime = 2 s

Time = 2.75

DICPCG:  Solving for T, Initial residual = 0.000130268, Final residual = 2.27749e-07, No Iterations 2
DICPCG:  Solving for T, Initial residual = 3.91585e-07, Final residual = 3.91585e-07, No Iterations 0
DICPCG:  Solving for T, Initial residual = 3.91585e-07, Final residual = 3.91585e-07, No Iterations 0
ExecutionTime = 2.27 s  ClockTime = 2 s

Time = 2.755

DICPCG:  Solving for T, Initial residual = 0.000129844, Final residual = 2.2716e-07, No Iterations 2
DICPCG:  Solving for T, Initial residual = 3.90162e-07, Final residual = 3.90162e-07, No Iterations 0
DICPCG:  Solving for T, Initial residual = 3.90162e-07, Final residual = 3.90162e-07, No Iterations 0
ExecutionTime = 2.28 s  ClockTime = 2 s

Time = 2.76

DICPCG:  Solving for T, Initial residual = 0.000129422, Final residual = 2.26574e-07, No Iterations 2
DICPCG:  Solving for T, Initial residual = 3.88747e-07, Final residual = 3.88747e-07, No Iterations 0
DICPCG:  Solving for T, Initial residual = 3.88747e-07, Final residual = 3.88747e-07, No Iterations 0
ExecutionTime = 2.28 s  ClockTime = 2 s

Time = 2.765

DICPCG:  Solving for T, Initial residual = 0.000129003, Final residual = 2.2599e-07, No Iterations 2
DICPCG:  Solving for T, Initial residual = 3.8734e-07, Final residual = 3.8734e-07, No Iterations 0
DICPCG:  Solving for T, Initial residual = 3.8734e-07, Final residual = 3.8734e-07, No Iterations 0
ExecutionTime = 2.28 s  ClockTime = 2 s

Time = 2.77

DICPCG:  Solving for T, Initial residual = 0.000128585, Final residual = 2.25408e-07, No Iterations 2
DICPCG:  Solving for T, Initial residual = 3.85941e-07, Final residual = 3.85941e-07, No Iterations 0
DICPCG:  Solving for T, Initial residual = 3.85941e-07, Final residual = 3.85941e-07, No Iterations 0
ExecutionTime = 2.28 s  ClockTime = 2 s

Time = 2.775

DICPCG:  Solving for T, Initial residual = 0.000128169, Final residual = 2.24829e-07, No Iterations 2
DICPCG:  Solving for T, Initial residual = 3.84549e-07, Final residual = 3.84549e-07, No Iterations 0
DICPCG:  Solving for T, Initial residual = 3.84549e-07, Final residual = 3.84549e-07, No Iterations 0
ExecutionTime = 2.29 s  ClockTime = 2 s

Time = 2.78

DICPCG:  Solving for T, Initial residual = 0.000127755, Final residual = 2.24252e-07, No Iterations 2
DICPCG:  Solving for T, Initial residual = 3.83164e-07, Final residual = 3.83164e-07, No Iterations 0
DICPCG:  Solving for T, Initial residual = 3.83164e-07, Final residual = 3.83164e-07, No Iterations 0
ExecutionTime = 2.29 s  ClockTime = 2 s

Time = 2.785

DICPCG:  Solving for T, Initial residual = 0.000127343, Final residual = 2.23677e-07, No Iterations 2
DICPCG:  Solving for T, Initial residual = 3.81788e-07, Final residual = 3.81788e-07, No Iterations 0
DICPCG:  Solving for T, Initial residual = 3.81788e-07, Final residual = 3.81788e-07, No Iterations 0
ExecutionTime = 2.29 s  ClockTime = 2 s

Time = 2.79

DICPCG:  Solving for T, Initial residual = 0.000126933, Final residual = 2.23105e-07, No Iterations 2
DICPCG:  Solving for T, Initial residual = 3.80419e-07, Final residual = 3.80419e-07, No Iterations 0
DICPCG:  Solving for T, Initial residual = 3.80419e-07, Final residual = 3.80419e-07, No Iterations 0
ExecutionTime = 2.3 s  ClockTime = 2 s

Time = 2.795

DICPCG:  Solving for T, Initial residual = 0.000126525, Final residual = 2.22535e-07, No Iterations 2
DICPCG:  Solving for T, Initial residual = 3.79059e-07, Final residual = 3.79059e-07, No Iterations 0
DICPCG:  Solving for T, Initial residual = 3.79059e-07, Final residual = 3.79059e-07, No Iterations 0
ExecutionTime = 2.3 s  ClockTime = 2 s

Time = 2.8

DICPCG:  Solving for T, Initial residual = 0.000126119, Final residual = 2.21968e-07, No Iterations 2
DICPCG:  Solving for T, Initial residual = 3.77706e-07, Final residual = 3.77706e-07, No Iterations 0
DICPCG:  Solving for T, Initial residual = 3.77706e-07, Final residual = 3.77706e-07, No Iterations 0
ExecutionTime = 2.31 s  ClockTime = 2 s

Time = 2.805

DICPCG:  Solving for T, Initial residual = 0.000125715, Final residual = 2.21403e-07, No Iterations 2
DICPCG:  Solving for T, Initial residual = 3.7636e-07, Final residual = 3.7636e-07, No Iterations 0
DICPCG:  Solving for T, Initial residual = 3.7636e-07, Final residual = 3.7636e-07, No Iterations 0
ExecutionTime = 2.32 s  ClockTime = 2 s

Time = 2.81

DICPCG:  Solving for T, Initial residual = 0.000125312, Final residual = 2.2084e-07, No Iterations 2
DICPCG:  Solving for T, Initial residual = 3.75021e-07, Final residual = 3.75021e-07, No Iterations 0
DICPCG:  Solving for T, Initial residual = 3.75021e-07, Final residual = 3.75021e-07, No Iterations 0
ExecutionTime = 2.32 s  ClockTime = 2 s

Time = 2.815

DICPCG:  Solving for T, Initial residual = 0.000124912, Final residual = 2.20279e-07, No Iterations 2
DICPCG:  Solving for T, Initial residual = 3.73691e-07, Final residual = 3.73691e-07, No Iterations 0
DICPCG:  Solving for T, Initial residual = 3.73691e-07, Final residual = 3.73691e-07, No Iterations 0
ExecutionTime = 2.32 s  ClockTime = 2 s

Time = 2.82

DICPCG:  Solving for T, Initial residual = 0.000124513, Final residual = 2.1972e-07, No Iterations 2
DICPCG:  Solving for T, Initial residual = 3.72368e-07, Final residual = 3.72368e-07, No Iterations 0
DICPCG:  Solving for T, Initial residual = 3.72368e-07, Final residual = 3.72368e-07, No Iterations 0
ExecutionTime = 2.33 s  ClockTime = 2 s

Time = 2.825

DICPCG:  Solving for T, Initial residual = 0.000124116, Final residual = 2.19164e-07, No Iterations 2
DICPCG:  Solving for T, Initial residual = 3.71052e-07, Final residual = 3.71052e-07, No Iterations 0
DICPCG:  Solving for T, Initial residual = 3.71052e-07, Final residual = 3.71052e-07, No Iterations 0
ExecutionTime = 2.33 s  ClockTime = 2 s

Time = 2.83

DICPCG:  Solving for T, Initial residual = 0.000123721, Final residual = 2.1861e-07, No Iterations 2
DICPCG:  Solving for T, Initial residual = 3.69745e-07, Final residual = 3.69745e-07, No Iterations 0
DICPCG:  Solving for T, Initial residual = 3.69745e-07, Final residual = 3.69745e-07, No Iterations 0
ExecutionTime = 2.33 s  ClockTime = 2 s

Time = 2.835

DICPCG:  Solving for T, Initial residual = 0.000123328, Final residual = 2.18059e-07, No Iterations 2
DICPCG:  Solving for T, Initial residual = 3.68447e-07, Final residual = 3.68447e-07, No Iterations 0
DICPCG:  Solving for T, Initial residual = 3.68447e-07, Final residual = 3.68447e-07, No Iterations 0
ExecutionTime = 2.34 s  ClockTime = 2 s

Time = 2.84

DICPCG:  Solving for T, Initial residual = 0.000122937, Final residual = 2.17509e-07, No Iterations 2
DICPCG:  Solving for T, Initial residual = 3.67157e-07, Final residual = 3.67157e-07, No Iterations 0
DICPCG:  Solving for T, Initial residual = 3.67157e-07, Final residual = 3.67157e-07, No Iterations 0
ExecutionTime = 2.34 s  ClockTime = 2 s

Time = 2.845

DICPCG:  Solving for T, Initial residual = 0.000122547, Final residual = 2.16962e-07, No Iterations 2
DICPCG:  Solving for T, Initial residual = 3.65874e-07, Final residual = 3.65874e-07, No Iterations 0
DICPCG:  Solving for T, Initial residual = 3.65874e-07, Final residual = 3.65874e-07, No Iterations 0
ExecutionTime = 2.34 s  ClockTime = 2 s

Time = 2.85

DICPCG:  Solving for T, Initial residual = 0.00012216, Final residual = 2.16417e-07, No Iterations 2
DICPCG:  Solving for T, Initial residual = 3.646e-07, Final residual = 3.646e-07, No Iterations 0
DICPCG:  Solving for T, Initial residual = 3.646e-07, Final residual = 3.646e-07, No Iterations 0
ExecutionTime = 2.34 s  ClockTime = 2 s

Time = 2.855

DICPCG:  Solving for T, Initial residual = 0.000121774, Final residual = 2.15874e-07, No Iterations 2
DICPCG:  Solving for T, Initial residual = 3.63333e-07, Final residual = 3.63333e-07, No Iterations 0
DICPCG:  Solving for T, Initial residual = 3.63333e-07, Final residual = 3.63333e-07, No Iterations 0
ExecutionTime = 2.35 s  ClockTime = 2 s

Time = 2.86

DICPCG:  Solving for T, Initial residual = 0.00012139, Final residual = 2.15333e-07, No Iterations 2
DICPCG:  Solving for T, Initial residual = 3.62073e-07, Final residual = 3.62073e-07, No Iterations 0
DICPCG:  Solving for T, Initial residual = 3.62073e-07, Final residual = 3.62073e-07, No Iterations 0
ExecutionTime = 2.35 s  ClockTime = 2 s

Time = 2.865

DICPCG:  Solving for T, Initial residual = 0.000121007, Final residual = 2.14794e-07, No Iterations 2
DICPCG:  Solving for T, Initial residual = 3.60819e-07, Final residual = 3.60819e-07, No Iterations 0
DICPCG:  Solving for T, Initial residual = 3.60819e-07, Final residual = 3.60819e-07, No Iterations 0
ExecutionTime = 2.35 s  ClockTime = 2 s

Time = 2.87

DICPCG:  Solving for T, Initial residual = 0.000120627, Final residual = 2.14258e-07, No Iterations 2
DICPCG:  Solving for T, Initial residual = 3.59572e-07, Final residual = 3.59572e-07, No Iterations 0
DICPCG:  Solving for T, Initial residual = 3.59572e-07, Final residual = 3.59572e-07, No Iterations 0
ExecutionTime = 2.36 s  ClockTime = 2 s

Time = 2.875

DICPCG:  Solving for T, Initial residual = 0.000120248, Final residual = 2.13724e-07, No Iterations 2
DICPCG:  Solving for T, Initial residual = 3.58332e-07, Final residual = 3.58332e-07, No Iterations 0
DICPCG:  Solving for T, Initial residual = 3.58332e-07, Final residual = 3.58332e-07, No Iterations 0
ExecutionTime = 2.36 s  ClockTime = 2 s

Time = 2.88

DICPCG:  Solving for T, Initial residual = 0.000119871, Final residual = 2.13192e-07, No Iterations 2
DICPCG:  Solving for T, Initial residual = 3.57097e-07, Final residual = 3.57097e-07, No Iterations 0
DICPCG:  Solving for T, Initial residual = 3.57097e-07, Final residual = 3.57097e-07, No Iterations 0
ExecutionTime = 2.36 s  ClockTime = 2 s

Time = 2.885

DICPCG:  Solving for T, Initial residual = 0.000119495, Final residual = 2.12661e-07, No Iterations 2
DICPCG:  Solving for T, Initial residual = 3.5587e-07, Final residual = 3.5587e-07, No Iterations 0
DICPCG:  Solving for T, Initial residual = 3.5587e-07, Final residual = 3.5587e-07, No Iterations 0
ExecutionTime = 2.36 s  ClockTime = 2 s

Time = 2.89

DICPCG:  Solving for T, Initial residual = 0.000119122, Final residual = 2.12133e-07, No Iterations 2
DICPCG:  Solving for T, Initial residual = 3.54649e-07, Final residual = 3.54649e-07, No Iterations 0
DICPCG:  Solving for T, Initial residual = 3.54649e-07, Final residual = 3.54649e-07, No Iterations 0
ExecutionTime = 2.37 s  ClockTime = 2 s

Time = 2.895

DICPCG:  Solving for T, Initial residual = 0.00011875, Final residual = 2.11607e-07, No Iterations 2
DICPCG:  Solving for T, Initial residual = 3.53434e-07, Final residual = 3.53434e-07, No Iterations 0
DICPCG:  Solving for T, Initial residual = 3.53434e-07, Final residual = 3.53434e-07, No Iterations 0
ExecutionTime = 2.37 s  ClockTime = 2 s

Time = 2.9

DICPCG:  Solving for T, Initial residual = 0.00011838, Final residual = 2.11083e-07, No Iterations 2
DICPCG:  Solving for T, Initial residual = 3.52226e-07, Final residual = 3.52226e-07, No Iterations 0
DICPCG:  Solving for T, Initial residual = 3.52226e-07, Final residual = 3.52226e-07, No Iterations 0
ExecutionTime = 2.38 s  ClockTime = 2 s

Time = 2.905

DICPCG:  Solving for T, Initial residual = 0.000118011, Final residual = 2.10561e-07, No Iterations 2
DICPCG:  Solving for T, Initial residual = 3.51025e-07, Final residual = 3.51025e-07, No Iterations 0
DICPCG:  Solving for T, Initial residual = 3.51025e-07, Final residual = 3.51025e-07, No Iterations 0
ExecutionTime = 2.39 s  ClockTime = 2 s

Time = 2.91

DICPCG:  Solving for T, Initial residual = 0.000117644, Final residual = 2.10041e-07, No Iterations 2
DICPCG:  Solving for T, Initial residual = 3.49829e-07, Final residual = 3.49829e-07, No Iterations 0
DICPCG:  Solving for T, Initial residual = 3.49829e-07, Final residual = 3.49829e-07, No Iterations 0
ExecutionTime = 2.39 s  ClockTime = 2 s

Time = 2.915

DICPCG:  Solving for T, Initial residual = 0.000117279, Final residual = 2.09523e-07, No Iterations 2
DICPCG:  Solving for T, Initial residual = 3.48641e-07, Final residual = 3.48641e-07, No Iterations 0
DICPCG:  Solving for T, Initial residual = 3.48641e-07, Final residual = 3.48641e-07, No Iterations 0
ExecutionTime = 2.39 s  ClockTime = 2 s

Time = 2.92

DICPCG:  Solving for T, Initial residual = 0.000116916, Final residual = 2.09007e-07, No Iterations 2
DICPCG:  Solving for T, Initial residual = 3.47458e-07, Final residual = 3.47458e-07, No Iterations 0
DICPCG:  Solving for T, Initial residual = 3.47458e-07, Final residual = 3.47458e-07, No Iterations 0
ExecutionTime = 2.4 s  ClockTime = 2 s

Time = 2.925

DICPCG:  Solving for T, Initial residual = 0.000116554, Final residual = 2.08493e-07, No Iterations 2
DICPCG:  Solving for T, Initial residual = 3.46283e-07, Final residual = 3.46283e-07, No Iterations 0
DICPCG:  Solving for T, Initial residual = 3.46283e-07, Final residual = 3.46283e-07, No Iterations 0
ExecutionTime = 2.4 s  ClockTime = 2 s

Time = 2.93

DICPCG:  Solving for T, Initial residual = 0.000116194, Final residual = 2.07981e-07, No Iterations 2
DICPCG:  Solving for T, Initial residual = 3.45114e-07, Final residual = 3.45114e-07, No Iterations 0
DICPCG:  Solving for T, Initial residual = 3.45114e-07, Final residual = 3.45114e-07, No Iterations 0
ExecutionTime = 2.4 s  ClockTime = 2 s

Time = 2.935

DICPCG:  Solving for T, Initial residual = 0.000115835, Final residual = 2.07471e-07, No Iterations 2
DICPCG:  Solving for T, Initial residual = 3.43952e-07, Final residual = 3.43952e-07, No Iterations 0
DICPCG:  Solving for T, Initial residual = 3.43952e-07, Final residual = 3.43952e-07, No Iterations 0
ExecutionTime = 2.41 s  ClockTime = 2 s

Time = 2.94

DICPCG:  Solving for T, Initial residual = 0.000115478, Final residual = 2.06963e-07, No Iterations 2
DICPCG:  Solving for T, Initial residual = 3.42795e-07, Final residual = 3.42795e-07, No Iterations 0
DICPCG:  Solving for T, Initial residual = 3.42795e-07, Final residual = 3.42795e-07, No Iterations 0
ExecutionTime = 2.41 s  ClockTime = 2 s

Time = 2.945

DICPCG:  Solving for T, Initial residual = 0.000115123, Final residual = 2.06456e-07, No Iterations 2
DICPCG:  Solving for T, Initial residual = 3.41645e-07, Final residual = 3.41645e-07, No Iterations 0
DICPCG:  Solving for T, Initial residual = 3.41645e-07, Final residual = 3.41645e-07, No Iterations 0
ExecutionTime = 2.41 s  ClockTime = 2 s

Time = 2.95

DICPCG:  Solving for T, Initial residual = 0.000114769, Final residual = 2.05952e-07, No Iterations 2
DICPCG:  Solving for T, Initial residual = 3.40501e-07, Final residual = 3.40501e-07, No Iterations 0
DICPCG:  Solving for T, Initial residual = 3.40501e-07, Final residual = 3.40501e-07, No Iterations 0
ExecutionTime = 2.42 s  ClockTime = 2 s

Time = 2.955

DICPCG:  Solving for T, Initial residual = 0.000114417, Final residual = 2.0545e-07, No Iterations 2
DICPCG:  Solving for T, Initial residual = 3.39362e-07, Final residual = 3.39362e-07, No Iterations 0
DICPCG:  Solving for T, Initial residual = 3.39362e-07, Final residual = 3.39362e-07, No Iterations 0
ExecutionTime = 2.42 s  ClockTime = 2 s

Time = 2.96

DICPCG:  Solving for T, Initial residual = 0.000114067, Final residual = 2.0495e-07, No Iterations 2
DICPCG:  Solving for T, Initial residual = 3.3823e-07, Final residual = 3.3823e-07, No Iterations 0
DICPCG:  Solving for T, Initial residual = 3.3823e-07, Final residual = 3.3823e-07, No Iterations 0
ExecutionTime = 2.42 s  ClockTime = 2 s

Time = 2.965

DICPCG:  Solving for T, Initial residual = 0.000113718, Final residual = 2.04451e-07, No Iterations 2
DICPCG:  Solving for T, Initial residual = 3.37105e-07, Final residual = 3.37105e-07, No Iterations 0
DICPCG:  Solving for T, Initial residual = 3.37105e-07, Final residual = 3.37105e-07, No Iterations 0
ExecutionTime = 2.42 s  ClockTime = 2 s

Time = 2.97

DICPCG:  Solving for T, Initial residual = 0.000113371, Final residual = 2.03954e-07, No Iterations 2
DICPCG:  Solving for T, Initial residual = 3.35986e-07, Final residual = 3.35986e-07, No Iterations 0
DICPCG:  Solving for T, Initial residual = 3.35986e-07, Final residual = 3.35986e-07, No Iterations 0
ExecutionTime = 2.42 s  ClockTime = 2 s

Time = 2.975

DICPCG:  Solving for T, Initial residual = 0.000113025, Final residual = 2.0346e-07, No Iterations 2
DICPCG:  Solving for T, Initial residual = 3.34873e-07, Final residual = 3.34873e-07, No Iterations 0
DICPCG:  Solving for T, Initial residual = 3.34873e-07, Final residual = 3.34873e-07, No Iterations 0
ExecutionTime = 2.42 s  ClockTime = 2 s

Time = 2.98

DICPCG:  Solving for T, Initial residual = 0.000112681, Final residual = 2.02967e-07, No Iterations 2
DICPCG:  Solving for T, Initial residual = 3.33767e-07, Final residual = 3.33767e-07, No Iterations 0
DICPCG:  Solving for T, Initial residual = 3.33767e-07, Final residual = 3.33767e-07, No Iterations 0
ExecutionTime = 2.42 s  ClockTime = 2 s

Time = 2.985

DICPCG:  Solving for T, Initial residual = 0.000112338, Final residual = 2.02475e-07, No Iterations 2
DICPCG:  Solving for T, Initial residual = 3.32668e-07, Final residual = 3.32668e-07, No Iterations 0
DICPCG:  Solving for T, Initial residual = 3.32668e-07, Final residual = 3.32668e-07, No Iterations 0
ExecutionTime = 2.44 s  ClockTime = 2 s

Time = 2.99

DICPCG:  Solving for T, Initial residual = 0.000111997, Final residual = 2.01986e-07, No Iterations 2
DICPCG:  Solving for T, Initial residual = 3.31578e-07, Final residual = 3.31578e-07, No Iterations 0
DICPCG:  Solving for T, Initial residual = 3.31578e-07, Final residual = 3.31578e-07, No Iterations 0
ExecutionTime = 2.44 s  ClockTime = 2 s

Time = 2.995

DICPCG:  Solving for T, Initial residual = 0.000111657, Final residual = 2.01498e-07, No Iterations 2
DICPCG:  Solving for T, Initial residual = 3.30493e-07, Final residual = 3.30493e-07, No Iterations 0
DICPCG:  Solving for T, Initial residual = 3.30493e-07, Final residual = 3.30493e-07, No Iterations 0
ExecutionTime = 2.44 s  ClockTime = 2 s

Time = 3

DICPCG:  Solving for T, Initial residual = 0.000111319, Final residual = 2.01013e-07, No Iterations 2
DICPCG:  Solving for T, Initial residual = 3.29413e-07, Final residual = 3.29413e-07, No Iterations 0
DICPCG:  Solving for T, Initial residual = 3.29413e-07, Final residual = 3.29413e-07, No Iterations 0
ExecutionTime = 2.46 s  ClockTime = 2 s

End

