/*---------------------------------------------------------------------------*\
  =========                 |
  \\      /  F ield         | OpenFOAM: The Open Source CFD Toolbox
   \\    /   O peration     | Website:  https://openfoam.org
    \\  /    A nd           | Version:  7
     \\/     M anipulation  |
\*---------------------------------------------------------------------------*/
Build  : 7-63349425784a
Exec   : particleInEB
Date   : Sep 13 2023
Time   : 16:00:48
Host   : "93a5b3ccec33"
PID    : 165
I/O    : uncollated
Case   : /opt/plasmasolve
nProcs : 1
sigFpe : Enabling floating point exception trapping (FOAM_SIGFPE).
fileModificationChecking : Monitoring run-time modified files using timeStampMaster (fileModificationSkew 10)
allowSystemOperations : Allowing user-supplied system call operations

// * * * * * * * * * * * * * * * * * * * * * * * * * * * * * * * * * * * * * //
Create time

Create mesh for time = 0.000e+00


Reading g
Reading field U

Reading/calculating face flux field phi

--> FOAM Warning : 
    From function bool Foam::IOobject::typeHeaderOk(bool) [with Type = Foam::GeometricField<double, Foam::fvsPatchField, Foam::surfaceMesh>]
    in file /opt/OpenFOAM/OpenFOAM-7/src/OpenFOAM/lnInclude/IOobjectTemplates.C at line 57
    unexpected class name volScalarField expected surfaceScalarField when reading "/opt/plasmasolve/0.000e+00/phi"
Selecting incompressible transport model Newtonian
Selecting turbulence model type laminar
Selecting laminar stress model Stokes
Reading field E

Reading field B

Reading field pvField

Constructing kinematicCloud kinematicCloud
Constructing particle forces
    none
Constructing cloud functions
    Selecting cloud function timeSpent of type timeSpent
Constructing particle injection models
Creating injector: model1
Selecting injection model generalizedFWPInjection
    Constructing 3-D injection
    Choosing nParticle to be a fixed value, massTotal variable now does not determine anything.


Velocity model patchNormal

{
    magU0           300;
}


Selecting distribution model fixedValue
Selecting dispersion model none
Selecting patch interaction model localInteraction
    Interaction fields will be written to kinematicCloud:massEscape and kinematicCloud:massStick
Selecting stochastic collision model none
Selecting surface film model none
Selecting U integration scheme Euler
Particle charge: 1.60217663e-19
collisions: 

{
    Ar+-_Ar_elastic
    {
        deltaE          0;
        dumpField       yes;
        gasDens         1.4485941e+21;
        gasMass         6.63352599e-26;
        gasTemp         500;
        location        "mc";
    }
    InterpolCollWithMBGas ( Ar+-_Ar_elastic );
}

Reading non-inertial frame fields
Courant Number mean: 0 max: 0

Starting time loop

--> FOAM Warning : 
    From function void Foam::timeControl::read(const Foam::dictionary&)
    in file db/functionObjects/timeControl/timeControl.C at line 89
    Reading "/opt/plasmasolve/system/controlDict.functions.processorField1" from line 23 to line 29
    Using deprecated 'outputControl'
    Please use 'writeControl' with 'writeInterval'
Time = 1.000e-07

Evolving kinematicCloud

Solving 3-D cloud kinematicCloud

Cloud: kinematicCloud injector: model1
    Added 500000 new parcels

Cloud: kinematicCloud
    Current number of parcels       = 500000
    Current mass in system          = 3.31916729e-20
    Linear momentum                 = (1.31194295e-21 5.68025011e-21 -9.63186281e-18)
   |Linear momentum|                = 9.63186458e-18
    Linear kinetic energy           = 1.61448549e-15
    model1:
        number of parcels added     = 500000
        mass introduced             = 3.31916729e-20
    Parcel fate (number, mass)      : patch .*
      - escape                      = 0, 0
      - stick                       = 0, 0

ExecutionTime = 641.05 s  ClockTime = 642 s

Time = 2.000e-07

Evolving kinematicCloud

Solving 3-D cloud kinematicCloud
Cloud: kinematicCloud
    Current number of parcels       = 499847
    Current mass in system          = 3.31815163e-20
    Linear momentum                 = (5.21616996e-22 2.48209936e-21 -9.31938771e-18)
   |Linear momentum|                = 9.31938806e-18
    Linear kinetic energy           = 1.73101634e-15
    model1:
        number of parcels added     = 500000
        mass introduced             = 3.31916729e-20
    Parcel fate (number, mass)      : patch .*
      - escape                      = 153, 1.01566519e-23
      - stick                       = 0, 0

ExecutionTime = 642.2 s  ClockTime = 643 s

Time = 3.000e-07

Evolving kinematicCloud

Solving 3-D cloud kinematicCloud
Cloud: kinematicCloud
    Current number of parcels       = 498813
    Current mass in system          = 3.31128759e-20
    Linear momentum                 = (-2.53978373e-21 4.27911676e-21 -9.02987894e-18)
   |Linear momentum|                = 9.02988031e-18
    Linear kinetic energy           = 1.83166859e-15
    model1:
        number of parcels added     = 500000
        mass introduced             = 3.31916729e-20
    Parcel fate (number, mass)      : patch .*
      - escape                      = 1187, 7.87970315e-23
      - stick                       = 0, 0

ExecutionTime = 643.3 s  ClockTime = 644 s

Time = 4.000e-07

Evolving kinematicCloud

Solving 3-D cloud kinematicCloud
Cloud: kinematicCloud
    Current number of parcels       = 497200
    Current mass in system          = 3.30057995e-20
    Linear momentum                 = (1.3883565e-21 7.71079581e-21 -8.75499278e-18)
   |Linear momentum|                = 8.75499629e-18
    Linear kinetic energy           = 1.92456112e-15
    model1:
        number of parcels added     = 500000
        mass introduced             = 3.31916729e-20
    Parcel fate (number, mass)      : patch .*
      - escape                      = 2800, 1.85873368e-22
      - stick                       = 0, 0

ExecutionTime = 644.39 s  ClockTime = 645 s

Time = 5.000e-07

Evolving kinematicCloud

Solving 3-D cloud kinematicCloud
Cloud: kinematicCloud
    Current number of parcels       = 495191
    Current mass in system          = 3.28724354e-20
    Linear momentum                 = (-2.43252934e-21 5.35636817e-21 -8.48197603e-18)
   |Linear momentum|                = 8.48197807e-18
    Linear kinetic energy           = 2.0131775e-15
    model1:
        number of parcels added     = 500000
        mass introduced             = 3.31916729e-20
    Parcel fate (number, mass)      : patch .*
      - escape                      = 4809, 3.1923751e-22
      - stick                       = 0, 0

ExecutionTime = 645.5 s  ClockTime = 646 s

End

